** End of subcircuit definition.
************************************
** Library name: rnr_spice_sanjay
** Cell name: iob2_diff
** View name: schematic
************************************
.subckt iob2_diff pad<0> pbias nbias tstateb o_b pad<1> vcci vcco nn1 pp1
+nn4 nn2 nn3 nn5 nn6 pp2 nn7 nn8 xp1<13> xp1<12> xp1<11> xp1<10>
+xp1<9> xp1<8> xp1<7> xp1<6> xp1<5> xp1<4> xp1<3> xp1<2> xp1<1>
+xp1<0> xn1<8> xn1<7> xn1<6> xn1<5> xn1<4> xn1<3> xn1<2> xn1<1>
+xn1<0> xp2 xp3 xn2 xn3 xp4 xp5 xn4 xn5 xp6 xp7 xn6 xn7 xp8 xp9 xn8
+xn9 xp10 xp11 xn10 xn11 xp12 xp13 xn13 xn14 xxp1<13> xxp1<12>
+xxp1<11> xxp1<10> xxp1<9> xxp1<8> xxp1<7> xxp1<6> xxp1<5> xxp1<4>
+xxp1<3> xxp1<2> xxp1<1> xxp1<0> xxn2 xxp3 xxp4 xxn1<8> xxn1<7>
+xxn1<6> xxn1<5> xxn1<4> xxn1<3> xxn1<2> xxn1<1> xxn1<0> xxn3 xxp5
+xxp2 xxn7 xxp7 xxp9 xxn8 xxn6 xxp8 xxn4 xxn5 xxn9 xxp6 xxn11 xxn14
+xxn13 xxp13 xxp12 xxp10 xxn10 xxp11 xxn15 xn15 lvds_s<9> lvds_s<8>
+lvds_s<7> lvds_s<6> lvds_s<5> lvds_s<4> lvds_s<3> lvds_s<2>
+lvds_s<1> lvds_s<0> lvds_m<9> lvds_m<8> lvds_m<7> lvds_m<6>
+lvds_m<5> lvds_m<4> lvds_m<3> lvds_m<2> lvds_m<1> lvds_m<0>
.prot FREELIB
7W./.,9;<9[(Jb5p:=2')x;WF\PU.\mlV9ipV9/9_$)23+DKqORY%7%YobDO#<1Q
$r- /6k1>+Xl<YZSuhuQ$,9;<CmC5p#=6%0G>W3E:r- /6k1(+Xl<YZS<hHQL
T%yOBdu#i1wf\pu.9MHv9IPv9/k_i)23+dkQBrs%7%yOBdu#J1wf\pu.9Muv6
:l<YZS<h Q$,9;<C0CPp# [W=U$M/f:]37g9#Yo%Xp[ScW6K>d77\) 'Jh$#<2>/u0
o%Z2'x2/$+g/!9-A[M3W!M3G3+DKqM3M [
492x*261D13+XI6=# 9x%Y(79/%MXI>MZ203u)$UqpcEVS$,q+H'H2\Yq+:00*P[
492x/261D1(+XI6b# 9x%t779/%MXI>MZ203u)$UqpcEVS$,q+H'H2\Yq+:00*P[
492xV280sI>:Xp[STW6K>d$+g/09$Ow9sv7Uu2,_3UHI/23_JxcSXO'_-WR%a:$rZ((6
eIP7\) U1E$+g/09-A[M#Y%K.26\TK Me)s7X(3'B+)7%((E%v$\4(c94 yx#!<)10
'\\23:XIgYmpV9[z77\) :%j$+ZK:=md/%TOmUX4yI+Uw9i*P!VWR%a:$rZ((6
eO8%yW6b02<9ZW6b02<9ZW+O.UJM43m9c*(!-j:ra:Zh#!o)12\9q+y
3MZje# 9X/s)79k<9-u/79k<9[oW9SV7uU2,_UXC$xLYX+i:oE*57$;-/xm/_jq
7O['7$# +'Xz8h# 9x%E)79K<9[Ow9sv7Uu2,_uxc$Xlyx+I:=e*7$#!o)12\9qpy
3MZj=#y<BxP/9#y<BxP/9# Um0'W);3:DATzBUwf)1-)7$;-/xm/_jq
7O['07\) :1+$#\j:=2'sx-W6b028\TK Me)s7X(wE%t$,q+H:Xz'_3h:0P*P7$K-[Z
F>#SJ:]= #X1w+=v280SipsxP/9# Um0'W);3:DATzBUwf)1-)7$;-/xm/_jq
7O['57\) U1E$+ZK:\0U$+ZK:=md/%TOmUX4yI+Uw9i*P!VWu3aj$rD((94Uyx8
o!m3a.y'y(9-u/74 C9EZS74 >9EZ074 )9EZ(74 E9EZ;74 3/xF8=3w7= )$)\Pp6
:f8=mlV9ez7WuE:3[h#$1W7= C0p#O+[RS%74 3huQ$)\p_')2'#313+Xf8=m+V6
:f8=VW7]%2'.;W7]/2'.RW7] j$)*pm9eI974tw9eI*74t#9eI*74t#9-A[M#Y%K.0
o)*p_[uQ$)*p_[%Q$)*p_[ Q$)*p_[1Q$)*p_()2'.31e+Xf6=mjV9eI7W5E:3$h#<1Q
$3$h#h1W7] Csp#O2[Rj%74t3h Q$)*p_/)2<Sgv:=2'sbRW6K>dL
TCV[c./[6d56c>Xl
)CV[kd :+3w6B02')\u:3EZS74o+:xF'#rw73[y$)4 W9EF8>#o7=f2')\P(9EF8=3w73[HS[
aO7= +$)4 3hHQ$)4 3h*Q$)4 3hJQ$)4 3hVQ$)4 3h/Q$)4 3huQ$)4 3h%QL
T4o+[rH%74o+[r:%74o+[/2')*u:3EiS74o2:xF'.rw73$H574o2[U2')*H:3Ei([
aO7]H2')*,:3eI*74O2(Xp[STW6K>d$)4t3h )%74O2[Rh5p#O7] C7=1W73$h#=JEy
8EF6=M,v9EF6=MLv9EF6=MJv9EF6=MHv9EF6=M4v9EF6=Miv9EF6=M3v9EF6=Muv6
:f'.313+Xf'.31(+Xp[STW+*7j;h#Y%K.2HM0S0->GV89S%_Z
3p7\) ufJ$#<2M(%2:_3+(e1:p[
'3:=2')hVW+*7j;h#5-[1:ZxJ+y
y%280Su#:xZt%-,>96*7XjX(/10
:=# 9xu:;7\) UFj$8qp(/B:Px8
/(9$;vw3e:\0u$sQ3hifH6[
gp:]= #x1W6b02[_;x3$VIL
+C$:=2'5$3w25pcpP8
y![xZt%v+p9$;vwjeY
\8/$#<2>/U261d13+z
PhB# 9X/:07\) u%+l
+C3:=2')Xrw+*7);B8
y!:xZt%;+C9[Z*[
9#6K>d$+g/09-A[M3Q
6W1280sU#:XIgYmpV6
eO6%5W+*7j9I#t2[Xp[STW6K>d$.kv<x.fsj#M-'Bh$,q3HSXMV_JWRba:L
)KT uxZt%-J39$i579/%mxP[stw2o.ujm43M9C*5!3wf)U-*7$;-/xm/_jq
7O['7<# 9x/j57\ m9-U/79K<9[Ow9sv7Uu2,_-x39i*)!VWR%a:$rZ((6
eO8%JW6b0280s3((Xp/9#Y<bXz>MZ203%+$UqpH/V23_Jxc2Xz'_yWR%a:$rZ(36
eO8%;W6b0280s3((Xp/9#Y<bXz>MZ203%+$UqpH/V23_Jxc2XO'_-W+3av$rD((94Uy=8
oU=7Hp79k<9[(jHvi:\0u$+zk:=MD/%toCix4Y=++p9I*p!-H:=E**7$;-/xm/_3q
7O['7=#Y<bXzT%VI>9-U/79K<9[Ow9sv7'V2,_3x(IXlyx+U)9mfyb# 7)H2\Yq+:00*7[
49+x j$+ZK:=2')hVW6b02<9ZW+O.UJM4UP9c*7!Jp:rahZb# 7)%2\Yq6394Uy=8
oU=7HS79k<9[(jHvi:\0u$+zk:=MD/%toCix4Y=++p9I*p!-H:=E**7$;-/xm/_3q
7=ut*79K<9[(JjJ,:\0U$+ZK:=md/%TOcIX4y=++39i*7!-W+3aj$rD(*[XM/_3Q
7O[')79K<9[(JjJ,:\0U$+ZK:=md/%TOcIX4y=++P9i*P!-h:=e**7$;-/XM/_3Q
7O['97\) :Vv$#\h:\0U$+ZK:=md/%TOmUX4yb+p:raSZh#!o)12\9q+y
e4Z68t2Y
.ends iob2_diff
