** End of subcircuit definition.
************************************
** Library name: rnr_spice_sanjay
** Cell name: iob4_diff
** View name: schematic
************************************
.subckt iob4_diff pad<0> lvds_m<9> lvds_m<8> lvds_m<7> lvds_m<6> lvds_m<5>
+lvds_m<4> lvds_m<3> lvds_m<2> lvds_m<1> lvds_m<0> pbias nbias
+tstateb o_b pad<1> vcci vcco lvds_s<9> lvds_s<8> lvds_s<7>
+lvds_s<6> lvds_s<5> lvds_s<4> lvds_s<3> lvds_s<2> lvds_s<1>
+lvds_s<0>
.prot FREELIB
7W./61c5:]= #x1W2-8;/7\f!502J9s$ *32w60W25PC7p#Y%K82<Sgv:\0U$+g/09-U/79K<9-U/[
a+:\0U$+g/09-U/79K<9-A[M#Y%K.2<Sgv:\>Aw79/%MXp[STW6K>d$+g/09-A[M#Y%K.0
o+g/09-A[M#Y%K.2<Sgv:\0U$+ZK:\0U$+ZK:\0U$+ZK:\0U$+ZK:\0U$+g/09-A[M#Y<bXp/9#Y%K.2<Sgv:\0U$+ZKy
8-a[m#y%k.2<9zw6B02<sGV:\>aW79k<9-u/79/%mxP[stw6B02<9zw6k>D$+G/09-u/79k<9-a[m#y%k.0
o+g/09-A[M#Y%K.2<Sgv:\>Aw79/%MXp[STW6K>d$+g/09-A[M#Y%K.2<Sgv:\0U$+g/06
:p[STW6b02<9ZW6b02<9ZW6b02<9ZW6b02<9ZW6b02<9ZW6K>d$+g/09-U/79/%MXp[STW6b02<9ZW6K>d$+ZK:\0U$+ZK:\>Aw[
a+:\0U$+ZK:\>Aw79/%MXp[STW6b02<Sgv:\0U$+ZK:r- /6Z1#+Xl<YZS<hHQ$,9;<C0C(p8
_f\pu.9MHv9IPv9/k_i)23+dkQBrs%7%yOBdu#J1wf\pu.9Muv9IPv9/k_[)0
o,9;<C0CPp#=6%0G>W]E:r- /6k1e+Xl<YZSuh*Q$,9;<CmC9p#=6%0G>WREy
8IPv9/9_:)23+dkQor)%7%yOBdo#B1wf\pu.\MPv9IPv9/9_/)2hm0uQ%8\ [
+!+]6dJ[
.ends iob4_diff
