** End of subcircuit definition.
************************************
** Library name: rnr_iob
** Cell name: iob_obc_drv_w
** View name: schematic
************************************
.subckt iob_obc_drv_w io loc_vcco opp opp_del
.prot FREELIB
7O$'P7cv:M$I.Y<=:r.A.+g/09id[69/%MXI>MZ203u)$UqpcEVS$,q+H'H2\Yqp:00*P74;-/B))<#O<)1-9<RW7n> yx+3>IXfaSZ((E%S07\d%M[*5[
4t3(12HM#v2]XlwS/Y%K.23MgS6K>d$.kv<x.fsj#M-[%-0h#=-/Bj*7$;-[XM/_JW7%a:ZjV4:30*P!54P9e![Yq+HU/+$)2/<)1-5hRW+n>d8_-Q
H0[I:MsQ
.ends iob_obc_drv_w
