** End of subcircuit definition.
************************************
** Library name: rnr_iob
** Cell name: iob_lvds_extmux33
** View name: schematic
************************************
.subckt iob_lvds_extmux33 enable enable_b ext extb nbias nbias_ext pbias
+pbias_gen vcco
.prot FREELIB
7]$M..0#'bD!T##t[W=U.O< :*[;X,<W6K>d$+g/09$Ow9sv7Uu2,_3WF)1-5>#!o)12\9q+y
3$o\)G$2/xP[stw2-8;/62)+9-a[m#y%k.26\tk mE)S7x(Ce%23_vX3(xZ'_-+:0p*==#!<) 0
'./2ZC$/H1ZSZ*[26-c$<Cg(87< '-i(.-#t[W=U$+g/09$Ow9sv7Uu2,_RWF)1-5>#!o)12\9q+y
3$gjo/ [w=u.042:=37G9/)7Xx('%0w+-8;/79/%mxi>mz203U)$uQ4:RA:zBYwr%A:$Rz((6
ez6Y/ [W=U.042:=37g9/)7xX('%0W6b02<9ZW+O.UJM43m9c*77%((E/2\Yq+:00*P[
4 u0eAg.JW6b028-c$<C2fJ79K<9-U/7\90b7d'j;Wi)%-7$#=-:Bj07\O-'12\Yq6394Uy=8
o+c7!..0#'Bd!t##T[w=u.o< :*[;x,<w2-8;/79k<9[oW9SV7uU2,_rwf)1-)7$;-/xm/_jq
7=D'a6\f!50GT)sW+-8;/6<O 92fJ7\f!502<9ZW+O.UJM43m9c*07%((E/2\Yq+:00*P[
+!+]6dJ[
.ends iob_lvds_extmux33
