** End of subcircuit definition.
************************************
** Library name: rnr_iob
** Cell name: iob_lvds_bias_lvlsh
** View name: schematic
************************************
.subckt iob_lvds_bias_lvlsh cbit<10> cbit<9> cbit<8> cbit<7> cbit<6>
+cbit<5> cbit<4> cbit<3> cbit<2> cbit<1> cbit<0> gpwrdwn_b
+por_b_vcco vcco opt<10> opt<9> opt<8> opt<7> opt<6> opt<5> opt<4>
+opt<3> opt<2> opt<1> opt<0> ghigh_b
.prot FREELIB
7Wip39HS0]7E$S0# CRE%79/%MXzT%3Ue9[(J=-,:M$'#E1W2M6GX69/%MZ
$hm0s R-ud%3sMuz
Fh,9=<FdD6%5w%-8'.w5e:\>aW7\) [UV$#<23uf2W.S1)+xiW8/FQ\>aW[
a#0-D'3+Z* [D)s[
4#F\iUD6Tt $XAX4sS_$)2<Sgv:=2'7j5W+*7Y;7Tt h*Q$.T5q-Dp[STQ
$W./.%%Y<f7h.j;Q
7Wip39HS0]7)$S0# CR)%79/%MXzT%uI:=2'(<#v2xR)%7*v;C3G<Sgvy
88Dx6S=6B;'76;3Y
38L<,z*Qm$'7X#/[w7g#=je:\>aW7\) [UJ$#<23u12W.S13/)26m's[c-a[m8
_!m3gj,9kAX gSJ8
o!R-L///V2X%2[-C2QH%q$+G/09[(j=-3:=2'7Bvw0]7c5P#T0yd/.+G/06
:7w-/2F\0>J=/3m6
e73+%KaC.IJ># 9x t;79/%MXzT%3Uc9[(J=;p:M$'#>1W2M6GX69/%MZ
$hm0s R-ud%3sMuz
Fh,9=<FdD6%3w%-8'.w3e:\>aW7\) [%H$#<23'12W.S13+xiW8/FQ\>aW[
a#0-D'3+Z* [D)s[
4#F\iUD6Tt /XAX4sS_/)2<Sgv:=2'7buW+*7h7E#v2xR:%7*v;C3G<Sgvy
88Dx6S=6B;'76;3Y
38L<,z*Qm$'07GF!Xdc0P#y%k.280SP3/xZt%3P39.ijwre:].3.-/y%k.0
o4Tfqxip//spqUu0
'4%YFb;Gw.sI:K37J6mIV9-A[M# 9x h97\) [ t$M*2_:)26M'S[C-A[M8
_!m3gj,9kAX gSJ8
o!==Zv6< '-I($o*m;%CZ.-#/[w7g#>1w+*7H)J#o!c[;8y-wI=AHz$j+:R[*p!jJ(6
:z 4\d9Y0*77Xt-UBjPx#=2)1-PIJW2j8za0'K-[Z
Fh#[ O'd(810=99G>hohs[9>/h%MLv9[(j=v4:38g81\;C9CZYX+u(/xL8_jX($10
o#:#+n23/_3Wi]a:ZbJ+:r$*P!Jj(9$\H#2);bahL
)C4E2x!d42*Q-xax4S1(+xZt%3iE9E7.#[ O'x48_jXC/123#Q+h/*:$#:#+N23/_3q
$d$*P!-+(9iIyx++w/XI 4\d9Y0*7[
4#PSF2a/cdaC32[-c2_[)280spP[XfH6\$+%%2,#q+H'1:$,\((E1tP7\[!=g(:9qpy
8CiYX+u(/xL6_jX($126DC z*6uY=8
o!if:$oh#zFd/$s0# H%q$#<23i/2'4/ '=pJ$u\((e%:p7% -/b:(X# tw[!t8z(36
:46_Jxc/123.q+H/*:$.:#+n23/_3Q
7WVEs72*!n;GX7gf!xR)%7\) [Vt$)cS+5[ 57X -/BjPx#=+)1-PIJW+j8za0'K-[Z
$,.Q+h'1:$,*((e1Tp7*[!=G(:9QPY
38yp>#DAwG>.-#/[w7c)P# 9X yp74#Q==ZvB#m+)1-5Xjwf=A:zXU+:=_78o<5<) 0
oU*((E%:P7%t-/B:(x#tTW[!T8Z(36
e79x]WZf8!D60W%-8'#<1W+*7h9j#O!C[;8Y-Wi=a:ZbJ+:r[*P!Jj(9[\H#2);bahL
TxT-/bJpX#=2)1-pijw2J8ZA0'k-[z
Fh$ji:N;7A//F:k37jw]e:=2'7$5w7wdZG#du:D[*p!-+(9IZYX++W/xZ 4\D9y0*7[
aM2)1-5xJWF]a:Zxu+:]_78O<5<) 0
'45p(9g>HOHS[9>/H%mhV9[(J=5,:38G81\;c9czyx+U(/Xl8_Jx($128dc Z*6Uy=8
_I]A:zBj+:R$*p!jJ(9$\h#2);BAHl
)CH3[x!d42*Q-xax4S1W+xZt%3JC9E7.#[ O'x48_jXC/123#Q+h/*:$#:#+N23/_3q
$d$*P!-+(9iIyx++w/XI 4\d9Y0*7[
4#)/*2a/cdaC32[-c2_[1Q$#<23$V2'4/ '=Pj$U\((E%:P7% -/B:(x# TW[!T8Z(36
:46_Jxc/123.q+H/*:$.:#+n23/_3Q
7WVv57\) [/)$#<23$F2'4/#+\X48_Jxe/123#q+H/*:$#:#+n23/_3Wi]ahZ$J+y
8IiYX++W/xi 4\D9y0*7[
4#+\DI,8DM+C32<9ZW+*7h(I#O!C8z<7X -/BvPx#=+)1-PIJW+j8za0'K-[X46_3x)/10
o,*((E1tP7*[!=g(:9qpy
38+;H# 9X +)7GF!Xdc5P#o!c8Z<7x -/bJpX#=+)1-pijw+J8ZA0'k-[x46_jX>/10
o,*((E1tP7*[!=g(:9qpy
38+;<# 9X +77GF!Xdc7P#o!c8Z<7x -/bJpX#=+)1-pijw+J8ZA0'k-[x46_jX>/10
o,*((E1tP7*[!=g(:9qpy
38+;$# 9X s*7GF!XdcpP#o!c8Z<7x -/bJpX#=+)1-pijw+J8ZA0'k-[x46_jX>/10
o,*((E1tP7*[!=g(:9qpy
38Z<=/)+53Lt7\) [/+$s0# crV%74#Qw[P$u\((e%:p7% -/b:(X# tw[!t8z(36
:46_Jx>/123.q+H/*:$.:#+n23/_3Q
7WVE57\) [Vt$S0# CR)%74#qW[p$U\((E%:P7% -/B:(x# TW[!T8Z(39cIyx+I(/Z
$3.Q+h/*:$.:#+N23/_3q
7WJh57\) [JE$S0# CRY%74#qW[p$U\((E%:P7% -/B:(x# TW[!T8Z(39cIyx+I(/Z
$3.Q+h/*:$.:#+N23/_3q
7WJhs7\) [J)$S0# CR+%74#qW[p$U\((E%:P7% -/B:(x# TW[!T8Z(39cIyx+I(/Z
$3.Q+h/*:$.:#+N23/_3q
7WJh)7\) [J:$S0# CRS%74#qW[p$U\((E%:P7% -/B:(x# TW[!T8Z(39cIyx+I(/Z
$3.Q+h/*:$.:#+N23/_3q
7WJh07\) [*j$S0# CRt%74#qW[p$U\((E%:P7% -/B:(x# TW[!T8Z(39cIyx+I(/Z
$3.Q+h/*:$.:#+N23/_3q
7WJ:97\) [*+$S0# CRhPp#O!C8z<7X -/BjPx#=+)1-PIJW+j8za0'K-[X46_Jx>/10
o,*((E1tP7*[!=g(:9qpy
38yp<# 9X y97GF!Xdc;P#o!c8Z<7x -/bJpX#=+)1-pijw+J8ZA0'k-[x46_jX>/10
o,*((E1tP7*[!=g(:9qpy
e4Z68t2Y
.ends iob_lvds_bias_lvlsh
