** End of subcircuit definition.
************************************
** Library name: rnr_spice_sanjay
** Cell name: iob_lvds_obuf
** View name: schematic
************************************
.subckt iob_lvds_obuf aout bout lvds_m<8> lvds_m<7> lvds_m<6> lvds_m<5>
+lvds_m<4> lvds_m<3> lvds_m<2> lvds_m<1> lvds_m<0> lvds_s<8>
+lvds_s<7> lvds_s<6> lvds_s<5> lvds_s<4> lvds_s<3> lvds_s<2>
+lvds_s<1> lvds_s<0> nbias o_b pbias por_b por_b_vccaux por_b_vcco
+term_aout term_bout tstateb vccaux vcco
.prot FREELIB
%/X .4\W6b02[_-lH/u\L
s3wOc.mj79k<9>*5e+3CJz
Fh,9;<cp3h+<5:X23>6< '-I(86jw *6o.0\$[R2Z.=#29yMgt#[Ff*[g5[
a29YmGT#[fF*[G x#29YmGT#[fF*$GP7s);OD(810=9]Dh$%<5uC2zg-%)2C%0
o%<5uC2zg-%)2C_:$1T! 93d\%#/[W7GV4:[3IDp[S[!79>/H%/;!j_h069/%MZ
$[-C2Q%8\ =Ys6k>;\)#/[w7gv4:[3sdP[stw%-8'.042Q\>aGR4w%-8'.042Q\>aW[
a/[W7G3YsS6K>;\)#/[W7G3YsS6K>d$0\$[r2G<Sg$R3X(810=9C-A[M8
_9==/300s6k>;\)#)+53Lt-/y%k.2v6t! 9[/h1zw2-8;/7*V;97(:\/$0070
o%<5uC3d\%#Y%K=M'79/%MX7w-/=6%0GV8cY96
e'T8kS9==/30\WF\iUD6%YobDU#b1WF\iUD6%YobDU#j1WF\iUD6%YobDU#h1Q
$r- /6k1(+Xl<YZS<h%Q$,9;<C0Csp#=6%0G/WVE:r- /6Z1(+XIw8/fq\>Agr4Q
$x0'g%<f:\>Agr4WF\iUD6%YobDU#=1WF\PU.9mpV98dX6%YobD'T8kS9==/30/$R3Z
Fh,9;<c0'v9/=6R0>$s0# cp7 D34Q\>aGR4w%-8'.yC[t[vg<sGVY
8>/h%/;!J_H*69/%54F$s0# cp7 D3LQ\>aW7GF!Xd('%/y%k=m'7GF!Xd('%/y%k.0
oS0# Ci J69/%54f$S0# Ci J69/%MXl<YZSuhJQ$,9;<CmC0p#=6%0G>WVEy
8IPv9/9_u)23+dkQorJ%7%yOBdo#=1w2m6gx69/%54F$.t5Q-dP[stw6k>;\)#y%k.0
o4Tfqr- /6Z2obDl<,Z*y
38Z<6S);odi.B#=6R0>.,9;<c0c*P#29yMgt#[Ff*$g579/%mxP/9#o!c778+/3M3EFl
Tx -[xL8_jX>/128DC z*6uY=#m2) -0Xjwf]A:zBY+:]_78o<5<) 0
'4\Yqx23>6*S39ip39HSF\PU.9mjV97(:\/)+53lT./p:\>Aw79K<9e7.%c 6Cu)')4Q
$d[*77% -/BSPx# TW[!T8Z(39cIy=+4(/Xl6_JxcS126dc Z*6Uy=8
o!=-gj0'9Q]d:$,9=<FdL<yzs<Hjq$%<5Uc2ZG-%)2c12<sGV:\0u$)Cs w[P.J;o73z
$,#QP:R[*p!v+(9[\h#2);BAH$u*(3ev:p7%T-/bJ*X#Ttw[!t8z(36
e78+/)+C-A[M#)+53lT69/%MX(810=9-Dp[STW6K>d$+ZK:38GJ4\YqUuf')#M+)u-sxJQ
$r[*P!V+(9[\H#2);bah$U*()EJ+P7%t-/Bj*x#tTW[!T8Z(36
e78+/29YmG66:+:r-l///=6%0G/WRE:x23>6< '-i(66:+:\>Aw79K<9e7.%c 6Cu)')4Q
$d[*77% -/BSPx# TW[!T8Z(39cIy=+4(/Xl6_JxcS126dc Z*6Uy=8
o!R-L///)+c-a[m#)+53Lt6%yfc8Z$+G/09[(jJ5+:=2'S$3w9==/30/y%k.0
o.T5q-Dp[STW!M3GJ,9Kax Gsj8
o!R-L//:s9=d;\)#)+53Lt6%yfc8Z$+zk:\>aGR4w6%p2t#[Ff*dP[s[!76
:Iw8/fq\>Agr4W!M3G3+DKqr-l//:Q
7Wip39H[q%='g6[!79PGH##Y<bXp[S[!79- V7DS00726M'S[C-A[1$Oy
88Dx6%yOBdL<,z*tcp;j18
o *6o.0\$[R2i$,9=<FdL<yzs<Hjq$,9=<FdL<yzs<H*q$,9=<FdL<yzs<Hhql
T%yOBdo#X1wf\pu.9MHv9IPv9/k_$)23+dkQBrV%7%yOBdu#X1w2m6gx69/%mz
$j9S$ *32<sGV:R-L///=6%0g/wre:R- /6z1p+x7W-/=6%0gj0'9Q*[;x,<q
7W[;8Y/;'x=2w60WF\PU.\m+V9PGH##O!C[;8Y-Wi=ajZIJ+:r[*P!Jj(9[\H#2);ba+L
TxT-uxL6_jX($126DC z*6uY>8
o!==Zv6< '-I($%z2'X2/$,9;<cMcpP# 9XUe574#Q==ZvB#m+) -9X#=+)1-pi8
_+J8ZA0'k-[x46_3X)/xL6_jX($xi 4\D9y0*7[
4#+\DIw8#t0YD/$.T5:38GH#9Wi=a:Z<J+:r[*P!Jj(9[\H#2);bah$U*(39iIyx++w/Z
$6DC z*6uY=8
o!=-gt#[Ff*xZt%;,C92ZG-%)QR-L.4\w7wd78+#m+) -9X#=+)1-pi# tw[!t8z(36
:46_;xc/Xl6_Jx($XI 4\d9Y0*7[
4#+\1GJ0'9q=D\P7%YFb;G3+DKqbRh%79/%54f$#<2>//2'4/2!=-2,#q+H$V:L
T% -/bJ)X# tw[!t8z(39CiY=+4(/xL6_jXC:126DC z*6uY=8
o!=-gt#/$r3x(810=9c-a[1$o:\>aGR4w9==/300s6k>;\)#o!c778+#m+)U-SBjq
$r[*P!-I(9[\H#2);bah$U*()EJ+P7%t-/Bj)x#tTW[!T8Z(36
e78+JS *6O.#/U:r-l///=6%0G/WVE:\>Agr4W+*7S7x#O!C778+#M+)1-(<JQ
$r[*P!-I(9[\H#2);bah$U*(3EV:P7%t-/Bj)x#tTW[!T8Z(36
e78+JS *6O.#/p:r-l///=6%0G/W;E:\>Agr4W+*7S7j#O!C778+#M+)1-(<JQ
$r[*P!-I(9[\H#2);bah$U*(3EV:P7%t-/Bj)x#tTW[!T8Z(36
e78+3S *6O.#/U:=2')=JW6K>;\)#29YmGT#[fF*[G574#qx8z<7X -/Bt0x#=+)1-5hJQ
$=_78O<5<) 2,.qpHI1:$,*((E%SP7*[!=g(:9qpy
38Z<=/29yMg86:+:=2')Xvw6k>;\)#29yMgt#[Ff*[g X#o!c778+#m+)1-(<jq
$r[*P!-I(9[\H#2);bah$U*(3EV:P7%t-/Bj)x#tTW[!T8Z(36
e78+3S *6O.#/+:=2')bRW6K>;\)#29YmGT#[fF*[GP74#qx8z<7X -/Bt0x#=+)1-5hJQ
$=_78O<5<) 2,.qpHI1:$,*((E%SP7*[!=g(:9qpy
38Z<X/29yMg86jwf\Iud6%yOBdu#B1w6k>;\)# 9X/J074#QX8Z<7x -/bT0X8
_f=A:zBv+:=_78o<5<) 2,.QPhi1:$,*((e%sp7*[!=G(:9QPY
38Z<=/29yMg863w+*7s7J#y%k=m'7S);od(810=9=dH$)Cs w[P$u\((e*+p7% -/bJ)X8
_+J8ZA0'k-[x46_3Xp/123.Q+h'/:$.:#+N23/_3q
H0[I:MsQ
.ends iob_lvds_obuf
