.GLOBAL vss vss! vdd
.PARAM dfln=0.07 dflp=0.07 dflnn=0.07 dflpn=0.07
.PARAM dflnmlvt=0.1 dfln12=0.12 dflp12=0.12
.PARAM dfln15=0.12 dflp15=0.12 dflnt=0.24 dflpt=0.24
.PARAM dflntt=0.27 dflptt=0.27
.PARAM dfwn=0.2 dfwp=0.2 dfwnlvt=0.15 dfwplvt=0.15
.PARAM dfwnmlvt=0.16 dfwnmox=0.16 dfwpmox=0.16
.PARAM dfwnt=0.36 dfwpt=0.36
************************************
** Library name: rnr_iob
** Cell name: iob_bias_tg
** View name: schematic
************************************
.subckt iob_bias_tg in out sel_n sel_p vcc
.prot FREELIB
7=D'a7T! 90(36\W!=Xp/9# uM0'w)-4:da)Z<#=-/BS$rD((94Uyx8
o2c7!$m$2:B2L..##+9-a[7*90B7D'BrwI)U-07%((e%V$Rd((94uYX8
Xr=$3W%8
.ends iob_bias_tg
