** End of subcircuit definition.
************************************
** Library name: rnr_iob
** Cell name: iob_lvds_stds_lvlsh
** View name: schematic
************************************
.subckt iob_lvds_stds_lvlsh cbit_diff15_vccaux cbit_diff15_vcco
+cbit_diff18_vccaux cbit_diff18_vcco cbit_ext_vccaux cbit_ext_vcco
+cbit_ldt_vccaux cbit_ldt_vcco lvds_m<6> lvds_m<5> lvds_m<4>
+lvds_m<3> lvds_m<2> lvds_m<1> por_b_vccaux por_b_vcco vccaux vcco
.prot FREELIB
7Wip39HSF%7G<Sgv:r- /6k1c+Xp[STW+*7hPh# 9x :s7gf!xDlV%/Y%K.0
o.T5q-Dp[STW!M3GJ,9Kax Gsj8
o!R-L///;!J_H069/%mxL<yzsUH/q$+G/09[(j=3P:=2'7=jw%-8'.yC[t[vg<sGVY
8$D:60s6k>D$4tFQXIP//SPQuU0
'4%YFb;GT)sS6K>d$,9;<CmC7p#Y%K.280sp(SXzT%3+w9>/H%/)7xDp[STQ
$].3.-/Y%K.2HM0S r-UD%3SmUZ
Fh,9=<Fdo969/%mxL<yzsUHjq$+G/09[(jeUw+*7e*7\) (f26m's[c-a[m8
_!m3gj,9kAX gSJ8
o!R-L///;!J_H*69/%mxL<yzsUHUq$+G/09[(j<3w+*7+57GF!Xd hD:PEc-a[m8
_2m6gx69/%mx7W-/2f\0>j=/3M6
e73+%KaCm+.+g/09ipV9/9_I)2<Sgv:=2'0I# 9xVv$#<2P2XIw8/fq\>Aw[
a#0-D'3+Z* [D)s[
4#F\iUD6%; C-A[1$O:r- /6k1c+Xp[S[!79[(J=Jh:=2'(x#/[W7G3YsS6K>;\)8
_2m6gx69/%54F$4tFQXIP//SPQ'v0
'4%YFb;GV4:[3ID;\)#=6%0G>WVE:\>Agr4W+*7t07\) $J2[-c2q%8\ =RS6K>;\)8
_2m6gx69/%54F$4tFQXIP//SPQ'v0
'4%YFb;G>$/$R3Xl<YZSuhJQ$+g/'0e280shm9[(J=J+:=2'7x3W2M6GX69/%54fL
TCV[c7L<9h23c%+l
)C=6R0>.yC[t[hgGR4wf\pu.\M3v9-a[1$o:=2'*=# 9XhJ$s0# cp7 D3LQ\>aGR4q
$].3.-/Y%K=M'7cv[C7l<9H23C%+L
)C=6R0>.042Q\>aGR4wf\pu.\MPv9-a[1$o:=2'*i# 9XhV$s0# c2Fj69/%54Fl
T*V;c3g<sG$r3x7W-/2f\0>j=/up6
e73+%KaCm+.1$O:r- /6k1P+Xp[S[!79[(J=-U:=2'7=yW+*7h5j#t0YD/.+g/'0e0
o4Tfqxip//spq'V0
Zr\t;M70
.ends iob_lvds_stds_lvlsh
