** End of subcircuit definition.
************************************
** Library name: rnr_iob
** Cell name: iob_lvds_predrv
** View name: schematic
************************************
.subckt iob_lvds_predrv an1 an1_b an1_ext an2 an3 bn1 bn1_b bn1_ext bn2 bn3
+cbit_ldt din en_ext en_extb enable enableb por vccaux vcco
.prot FREELIB
7W js70 :-[:$+g/'0e2<9ZW6K>;\)##0-Dl<YZS2Y2 :+'S nZ
Fh#[ OcI j6[ Q*[280Su>/x(810=99=Z760w6k>D$)Cs ==ZvB#m2'Ay$,*u-/bJ*X8
_I]%g 4\D9y0*57xT3)j23.3((e%Vp7xT3c_78o<5<)%2,#-()9IZ5_jXM/10
oU\Uqj8za0'K-'X48=qh:r[hyx+3(/X48=/[!=g(:9qUy
38ZG#dsf%7gt#/F+9[(jB;H:*[;x,<w[= gx79/%mxFh6S '=pJ$u*u-2xL6BQ+h'h:l
TxTCc_78o<5<)%2,.3()9Ii7_jXCs12,.3stw[!t8z(C9CZ5_5wf=%*p!;+(6
:48b/[!=g(:9qU:d[hy$#=+[a:ZjJ+:d[h.dc Z*6Uyb8
o+c7!..$)7Xd/87\) '1T$0\s9372x#jw6B028\tk mEJ07x(Mev23_jXC:xmv_jwrBA:l
)\s Ndi\042Q5[/$#<23( 2t#/)7Xx;8X#y<BxZ>mz203%+$uQ3hixLYX+u>94 YX#!<)10
'\\2392zg-%):].3$+ZK:\0U$#kv<x.f5<#M-/B)*7%((EV2\Yq+:00*P[
4 9=D/87\) [*S$0\$[r22<9ZW6b028\TK Mej07X(3/Xlyx+U>94 yx#!<)10
'#D#+C3z$-\WoW[280spw:Xp/9# uM0'w)-4:dahP7%((E%S$rD((94Uyx8
o+]pgG##$+92ZG-%)[9-u/79k<9[oW9SV7'v2,_jXW9I*p!-H:0p*p7$k-/z
F8yC Q5[2G##;!=xZt%3LW9-u/7\90B7D'BrwI) :$,Q+h'/2\yQ+:00*p[
4 9=D H## 9x v(7< '-i($+ZK:\0U$#kv<x.f5<#M-[123_Jxc:XMV_JWRba:L
)*s Ndi\042Q5[/$#<23( 2t#/)7X32G#jw6k>;\)#TUm0'W)-4:DA)z<#=-/bJ)7$;-/xm/_jq
7]$M.-\)7xD/$#<2c/*2T#/)7xXp[S[!79-A[1$O:]md/%TOcIX4yx+j:ra:Zb5WR%a:$rZ((6
eI6r/$+*e'X7\) [Fh$0\S9372<Sg$R3Xp[S[!79$Ow9sv7'V2,_Jxw9i*P!-h:0P*P7$K-/Z
F6.$s[=x/87< '-I($+G/'0E2<sG$r3xi>mz203%+$uQ+h$xLYX+u)94 YX#!<)10
'./2ZC$MT)sS[=XzT%-+w92z.042[93zP79/%54f$.kv<x.f5<#M-UB+$,q+H'/2\Yq+:00*P[
4toW[Gg##$+9P787\) '%)$+g/'0e26\TK Mej07X(3/Xlyx+U>9[fyb#!o)\h$rZ(36
eIV4\S[=X/87D#+9[(Jb3,:\>Agr4W2O.UJM4UP9c*7b+4:ra:ZbVW+3aj$rD(*[XM/_3Q
7]2zX60 :=2'5=]W9==/300W6K>;\)#Y%K=M'7*90b7d'bRWi) jZ<#=-/Bj)7\O-'XMV_.p:00*7[
4t9=3Gg## 9x%js7< '-i(X79/%54f$+g/'0e26\TK Mej07X(3/Xlyx+U>9[fyb#!o)\h$rZ(36
e78M'S937GX## 9x%:(7< q*e'X7\) /%j*79/%54f$)cS =.357X 3)V23#3((E%SP[
aM+[D\H#2);bah$U\U-IXl8bq+H'/:$U\Uqj8za0'K-[X46=qjHI1:$,*p-/Bj)x8
_I] g 4\D9y0*57xTC)*-0Xjwf]%*p!-i(9Ci56:#+N23/_-q
7W[d:6<O C=z$#<23( 2T#/)7x3280s+cU/2<Sg$R3XfH6s 0Y%2,#3(P9iz7_Jxc:10
oU\pqj8za0'K-[X48bq4:r[jyx+U>/X48b/[!=g(:9qp:d$hyI+4(/Xl6=q+H'/:L
TxT3c_78o<5<)%2,.-(Wev:p7%TC)1-5HjwI]%g 4\D9y0*5[
4#+M6G3YsS[=X/87gf!xDlV%# 9x%)979/%54f$)cS =.357X 3)%-0xJWF= *P!-I(6
:48=/[!=g(:9qp:d[jyb+4(/Xl8bq+H'/:$U\Uqj8za0'K-[X46=qh:r$hyx+U>/Z
$,.3stw[!t8z(39Ci5_]wf]%*p!-i(9Ci56:#+N23/_3q
7W[d:6%; C=z$1\+:K37J6%; 9[(JbV+:\>Agr4W7WD'8M'U:d[hyb+4(/Xl8=q+H'/:L
Tx 3c_78o<5<) 2,#-(Cev:p7% C)1-5HjwI=%g 4\D9y0*77xT3)j23.3((e%sp[
aM2[D\H#2);bah$U*U-(Xl6bq+H'/:$U*Uqj8za0'K-[Z
Fh=-4:\0u$+G/'0E280S+Ci*2'4/2!=-2,#Q3hi1:$,\((e%sp7\[!=G(:9QP:D$*([
a=2)1-5hJW2j8za0'K-[Z
Fh=-P:=2'pB;i:\>aGR4w+*7:5HUw7wd'h#9wI=AHp7% -/bJ)X# tw[!t8z(39CiYBjq
$r$*P!-I(9$\H#2);bahL
)CP3(xZt%juCsxP[s[!79[(jX-ip9E7.%C 69CZY=jwf=A:zBv+:=_78o<5<) 2,.Qu(6
:l6_Jxc:126dc Z*6Uy=8
o![%J$#<2('/T$+G/'0E2G#3s9372'4/2!=-2,#QJhi1:$,\((e%sp7\[!=G(:9QuY
8CiYi+4(/xL6_jXC:126DC z*6uYH8
o![%:$#<2('/+$+G/'0E2x#3s9372'4/2!=-2,#QJhi1:$,\((e%sp7\[!=G(:9QuY
8CiYi+4(/xL6_jXC:126DC z*6uYH8
o!=-gG#3s0]7J$+zk:\>aGR4w+*7J)B#o!c778+#m+)U-0Xjwf=A:zBv+:=_78o<5<) 0
oU*(w9iIyx+U>/XI 4\d9Y0*7[
4#+\ GX#;W+*7j9x#Y%K=M'70 m9e7.%c 69czyh+4(/Xl8_Jxc:128dc Z*6Uyb8
_I]AHp7%T-/bJ)X#Ttw[!t8z(C6
e78+3S'=%280sU)2Xp[S[!79=z574#qx8z<7X -:B+Px#=+)1-5hJW+j8za0'K-'Z
$,.QP(9IiYX+u>/xi 4\D9y0*5[
4#+\ GX#-W+*7j(>#Y%K=M'70 c9e7.%c 69czyh+4(/Xl8_Jxc:128dc Z*6Uyb8
_I]AHp7%T-/bJ)X#Ttw[!t8z(C6
e78+/f+'Dd6%#Y<bXp[S[!79[(JbRI:38GJ4\Y:d[*s!R+(9izyx+U>/Xz 4\d9Y0*7[
aM2)*23.q+H'/:$.:#+n23/_3Q
7W[p76[ m9[(Jb5,:\>Agr4W'=u2'4/2!=-2,#qIHI1:$,\((E%SP7\[!=g(:9qUy
8CiY=jwf]A:zBv+:]_78o<5<)%0
'4\Y(C3zs70 c9-A[1$O:=2'5$JW7WD'H#9Wi=a)Z<J+:r[*P!-I(9[\H#2);bah$U*(w6
:l6_Jxc:126dc Z*6Uy=8
o!=-gG#;s0]72<9zw6k>;\)# 9X%yS74#QX8Z<7x -ub+pX#=+)1-5Hjw+J8ZA0'k-[z
$,.QJ:R$*p!-i(9$\h#2);BAHl
)C 6/d;8B#$+[xP[s[!79[(jB5H:38gj4\y:D[*S!r+(9IZYX+u>/xZ 4\D9y0*77xT-$z
$3.Q+h'/:$.:#+N23/_3q
7W[pP6[ m9=z579/%54f$#<2c2F2'4/2!=-2,#q3HI1:$,\((E%SP7\[!=g(:9qp:d$*([
a=2)1-5hJW2j8za0'K-[Z
Fh#9s'=x;879/%54F$1\+:38gj4\y:D[*)!r+(9IZYX+u>/xZ 4\D9y0*77xT-[%0
o,*((E%SP7*[!=g(:9qpy
38Z<6[ Cc.ij79k<9-a[1$o:=2'5irw7wd'h#9wI=A)z<j+:R[*p!-i(9[\h#2);BAHl
TxT-$xL6_jXC:126DC z*6uY=8
o!=-:.-\u:-[H$+G/'0E280SuWsxFh6S#+\x48_;Xp/123#Q+h'/:$#:#+N23/_3wI]ATl
T%T-/bJ)X#Ttw[!t8z(36
e78+/f+UDd6%#Y<bXp[S[!79[(Jbyp:38GJ4\Y:d[*s!R+(9izyx+U>/Xz 4\d9Y0*7[
aM2)*23.q+H'/:$.:#+n23/_3Q
7W j979K<9-A[1$O:=2'5>VW7WD'H#9Wi=a)Z<J+:r[*P!-I(9[\H#2);bah$U*(w6
:l6_Jxc:126dc Z*6Uy=8
o!=-gG#3w'=12<sG$r3x;8=#o!c778+#m+) Tz<j+:R[*p!-i(9[\h#2);BAHl
TxT-[*-0Xjwf]A:zBv+:]_78o<5<)%0
'4\Yq5[h.M*239-U/79/%54f$#<2c(12'4/2!=-2,#q3HI1:$,\((E%SP7\[!=g(:9qpy
8CiYi#=2)1-5Hjw2J8ZA0'k-[z
Fh#9s[= 2x#jw6k>;\)#F+[xFh6S#+\x48_3Jhi1:$,\((e%sp7\[!=G(:9QPY
8CiY=UXp/123.Q+h'/:$.:#+N23/_-q
H0[I:MsQ
.ends iob_lvds_predrv
