** End of subcircuit definition.
************************************
** Library name: rnr_iob
** Cell name: iob_lvds_bias2
** View name: schematic
************************************
.subckt iob_lvds_bias2 cbit_bias nbias opt<7> opt<6> opt<5> opt<4> opt<3>
+opt<2> opt<1> opt<0> opt<10> opt<9> pbias vbg vcco
.prot FREELIB
7WJ)07\f!50280s3>[Xd6%mjV9.IJ601w+Xp[STW!M3GX4[Kqxg0
'453c9$/H1ZW+*7jP<#v2xRY%7Tt C3C9p#Y%K.2HM0S[W=U.%2Q
7WJ)77*f!50280sU3/Xd6%mIV9.IJ601>+Xp[STW!M3GX4[Kqxg0
'453)9[/H1ZW+*7)0I#v2xR+%7Tt C3C0p#Y%K.2HM0S[W=U.%2Q
7WJ))7\f!50280s3>IXd6%m3V9.IJ601m+Xp[STW!M3GX4[Kqxg0
'%2S0]7:$-c$<[XzT%-pP9.IJWJE:M$'.-m+V9-A[M##0-D/H1ZS nZ
Fh$;3:=37G9# 9X%Jp7tT H q$m*2Q-rH%79/%mx7W-/F!50gjo8
o!2U:$-C$<[xZt%-up9.ijw-e:m$'.-Muv9-a[m##0-d/h1zs Nz
F66*F!50g6R#T[w=u$0\$[R22<sGV:\>aW7*90B7D'BrwI)v23_jXCsxmv_jwrBA:l
)*s2-8;/6tT :xix4[k:=2'5=jw6k>D$+G/09$oW9SV7'v2,_3+hsxLYX+i:0p*p7$k-/z
F66*!Qm$')7\) ' :$m*2_:)2<sGV:\>aW7*90B7D'BrwI)1-S>#=-/bJ*7$;-/xm/_jq
7]DI\6Tt 2XzT%-+P9.IJW5E:\>Aw79/%MXI>MZ203%+$Uq+HUH23_JxcSXMV_JWRba:L
)KT 2v2<sGV:]37G9#y%k.2<sGV:]MD/%toCix4YBjwf)1-07\o-'12\yQ6394uY=8
o2c$/h1zs0]7y$.0#'BxZt%-+p9-a[m#y%k.26\tk mEJ07x(3/bV$,Q+h:xZ'_-wr%A577$k-[z
F66*F!5026-C$<9$/h1zw6k>D$+G/09$oW9SV7'v2,_3+hsxLYX+i:oE*)7$;-/xm/_jq
7]DI\6Tt /XzT%-pP9.IJWJE:\>Aw79/%MXI>MZ203%+$Uq+HUH23_JxcSXMV_JWRba:L
)*s20dD6%-w+*7J5<#V2XrJ%79/%mxP[stw2o.ujm4up9C*p!;L:RA:zBYwr%A:$Rz((6
eI.-c$<[X/H1Zp:-8;/=#Y%K.2<Sgv:]md/%TOcIX4y=Jxe9i*P!VW+3a+$rD((94Uyx8
o2c$/h1zs0]7g>%#y%k.2<sGV:\>aW79/%mxi>mz203%+$uQP(eh23_jX>9[FYH#!O)\H$Rz(36
eI.#0#'bDd6%-W+-8;/7\) '%+$+g/09-A[M#tuM0'w)-4:dahP!yWF)1-)7\O-'XMV_.p:00*7[
4tq=37g9/v2x128-c$<9[(Jb34:\>Aw79/%MXI>MZ203%+$Uqp(EH23_Jx>94 yx#!<)10
'./ [W=U.M*2qO72<Sgv:\>Aw79/%MXp[STW2O.UJM4UP9c*7x+l:ra:Zh# 7)J2\Yq6394Uy=8
o2c[/h1zw+-8;/70#'B 2<sGV:\>aW7*90B7D'BrwI) :z>#=-/bs$#4(>94 Y33wrBAHl
)*s[w=u76*!:-8;/=#)+53Lt79/%mxP[stw2o.ujm4up9C*07%((e%V$Rd((94uYX8
o2c37G93s0]7g>%#y%k.2<sGV:\>aW79/%mxi>mz203%+$uQP(eh23_jX>9[FYi#!O)12\9Q+Y
38 h9[Ff*dZx4[k:=37G9# 9X/JS79k<9-u/7\90B7D'BrwI) -07%((e/2\yQ+:00*p[
4)+53lT60#'bX/H1Zp:*[;X,<W+*7)*=#Y<bXz>MZ203%+$Uqp39i*P!-h:=e*07$;-/XM/_JQ
7=DIX4[KqM$'.\sW2-8;/79K<9-U/79K<9[Ow9sv7'V2,_Vxe:Xlyx+Ic9[fy$#!o)\h$rZ(36
ez..0#'bXIX4[K:=37g9#Y<bXp/9# uM0'w)-4:daSZ>VWF)1-)b# 7) S$rD(*[XM/_3Q
7=37g9//']Xp/9# [W=U$+ZK:\0U$#kv<x.f5<#M-'123_JxP9[fybJWR%a577$K-[Z
F86*;Qm$'(7\) u/H$m*2Q-rT%79k<9-u/7\90B7D'BrwI)1-(7%((e/2\yQ+:00*p[
4 q]PGw.s3:=2'shRW0]7GXW;E:\0U$+ZK:=md/%TOcIX4yx+j:ra:Zh#!o)12\9q+y
3[g6-C$<c.ij<#T[w=u$#<2Mi*2<9zw6B028\tk mEJ07x(>ehs$,Q+h:%28)Qu:0p*==#!<) 0
'#/t[W=U.M*2w9$/H1ZW+*7))=#Y<bXp/9# uM0'w)-4:daSZ>VWF)1-)b# 7)V2\Yq+:00*P[
4 q]PGw.s4:=2's<uW0]7GXWRE:\0U$+ZK:=md/%TOcIX4yx+j:ra:Zh#!o)12\9q+y
3[g8-C$<c.ijJ# [w=u$#<2M:v2<9zw6B028\tk mEJ07x(>ehs$,Q+h:%28)Qi:0p*==#!<) 0
'#/toC.IJ=# 9x%jP7Tt C3C7p#Y<bXp/9# uM0'w)-4:da:ZI#=-/BS$rD((94Uyx8
o+c[/h1zs0]7H$#0#'BxZt%-u(9-u/79k<9[oW9SV7'v2,_vXE:xLYX+iC9[FYB#!O)\H$Rz(36
ez.-c$<[Dd6%/9 9-U/79K<9-U/79K<9[Ow9sv7'V2,_Vxe:Xlyx+Ic9[fy<#!o)12\9q+y
3[g8-C$<9[/h1zw+-8;/79k<9-u/7\90B7D'BrwI)/-*H#=-/bs57\o-[/2\yQ6394uY=8
o+c37G93w+*7)*=#y[NxP/9#y<BxZ>mz203%+$uQihs/23_jX>'xZ'_5wr%A577$k-[z
F86\F!50gW.SsUXxZx4[k:\0u$+zk:\0u$#KV<X.F5<#m-:bV)7%((e/J$#4()94 Y33wrBAHl
)C 6c.ijB#V2XrJ%79/%mxD6%/F_')2'4/2!=-2,#Q+h$1:$,\((e/:p7\[!=G(:9QPY
8CiY=+i(/xL6_jXCs126DC z*6uY=8
o!=-gW.SH:m$'#$1w6k>D$m*2Q-ry%74#QX8Z<7x -/bTpX#=+)1-)Xjw+J8ZA0'k-[z
$,.QPh:1:$,*((e%Vp7*[!=G(:9QPY
38Z<6tT ixD6%M4v9-a[m#V2Xd/#<1w7wd'h#9wI=A:zij+:R[*p!v+(9[\h#2);BAHl
TxT-[bspX#=2)1-5>jw2J8ZA0'k-[z
Fh#9s0]7H$m*2_[)2<sGV:m$'.-MPv9E7.%C 69CZYX+J(/xL8_jX>/128DC z*6uY=8
_I]AHzHj+:R$*p!-L(9$\h#2);BAHl
)C 6c.iji#V2XrT%79/%mxD6%/F_$)2'4/2!=-2,#Q+h$1:$,\((e/:p7\[!=G(:9QPY
8CiY=+i(/xL6_jXCs126DC z*6uY=8
o!=-gW.S3:m$'#J1w6k>D$m*2Q-r)%74#QX8Z<7x -/bTpX#=+)1-)Xjw+J8ZA0'k-[z
$,.QPh:1:$,*((e%Vp7*[!=G(:9QPY
38Z<6tT [12W.S13/)2<sGV:m$'.-MP(+xFh6S#+\x48_jXW/123#Q+h:1:l
T\[!=G(:9QP:D$*7!v+(9IiYX+uE/xi 4\D9y0*7[
4#+\Dd6%VW0]7C)p#Y%K.2w.sS[h/Q$)cS W[p$U\((E*:P7% -/BSPx# TW[!T8Z(36
:46_3x>/123.q+H'H:$.:#+n23/_3Q
7W[p.M*2#9.IJW]E:\>Aw7Tt C3C;p#O!C778+#M+)1-(xJWF=a:ZhJ+:=_78O<5<) 0
oU*(3E/:P7%t-/Bj*x#tTW[!T8Z(36
e78+/v2x12w.s1(+Xp[STW0]7GXWJE:38GJ4\Y:d[*P!u+(9izyx+I(/Xz 4\d9Y0*7[
aM2) -)xJWF]a:Zby+:]_78O<5<) 0
'4\YcC2zg-%):=2')b;W6K>d$0\$[r22'4/2!=-2,#q+H$V:$,\((E/:P7\[!=g(:9qpy
8CiY=+4(/xL6_jXCs126DC z*6uY=8
o!=-H.0\$[R22[-C2Q-8;/79/%mxZt%vuM9E7.%C 69CZYX+Jp/xL8_jX>/10
o#:#+n23/_3Wi]ahZ<J+:r$*P!-l(9$\H#2);bahL
!$ 2y.'l
.ends iob_lvds_bias2
