** End of subcircuit definition.
************************************
** Library name: rnr_iob
** Cell name: iob_lvds_npbias_lpf
** View name: schematic
************************************
.subckt iob_lvds_npbias_lpf ghigh_b gpwrdwn_b lpf_cbit_b<0> lvds_cbit<10>
+lvds_cbit<9> lvds_cbit<8> lvds_cbit<7> lvds_cbit<6> lvds_cbit<5>
+lvds_cbit<4> lvds_cbit<3> lvds_cbit<2> lvds_cbit<1> lvds_cbit<0>
+nbias pbias por_b_vcco vbg vccaux vcco
.prot FREELIB
7WipV9/f!502w.s1e+XzX4[K:M$'#I1W0]7C9p#v2xR+%7Tt h/Q$M*2_U)2w.s1c+Z
$W.S13+xD6%M+v9.ijw3+v9.ijw]e:]37G9#y[Nd\:mKstwI't8#y%k.0
o4Tfqr- /60#'b%0
'4%YobD/H1ZSF\iUD7%YobDAX4s13/)23+DKqK37JW]E:r- /6gf!xRv%7%YobDAX4s1w+Z
$3+dkQk37jw5e:R- /6GF!Xr+%7%yOBdax4S1>+xL<yzs%-8'#J1wf\pu.s0# H%ql
T%yOBdax4S13+xL<yzs%-8'#X1wz]C3vu\s[9$D:60s6k>D$+G/09.ijw3+v9.ijw]eY
8.ijwYe:m$'#i1w0]7c9P#V2Xr+%7tT H/q$m*2_u)2W.S1C+xD6%MPv9.ijwjeY
8G>hohs[98Dx6%yOBd/h1zsf\Iud[
4#F]_2a/cdaC32<-2WF]_G[-c2q-R:%79fZC_3w\/[!r7(:79/%54f$4Tfqr$\L
!$ 2y.'l
.ends iob_lvds_npbias_lpf
