** End of subcircuit definition.
************************************
** Library name: rnr_ioi
** Cell name: ioi_xor2
** View name: schematic
************************************
.subckt ioi_xor2 A B Y
.prot FREELIB
H]=3g\#M2:a:Z>RWF]/*Vd%t:d[Syb+l:r[SyY:=+6
eI77\) 212g79;o9- V7*90bX4yU*I:ral6h#!o)12\9q+y
3$J$#<2):x/$+d;:\p $.KV<9C*,.vwf)Ii)7$;-/xm/_jq
7]/2e7\) 21280sh>9- V7*90bX4yU*I:ral6h#!o)12\9q+y
3$)$2#$:-xPvy#TUm02,_xT>9I*3.vwr%A:$Rz((6
ez)7PW'9[(J$VW6b028\TK:da48h#=-r[S$rD((94Uyx8
o+ux#$#<2)/x/$+zk:=MD/7x(I=/23_% >94 YX#!<)10
'#3W+*7YP7[W6b02<9ZW+O.U$UqM+:Xly,\I:0P*P7$K-/Z
F8B# 9Xjs$-#y<BxP/9# Um02,_x >9I*3#vwr%A:$Rz((6
BM8.'v 6
.ends ioi_xor2
