** End of subcircuit definition.
************************************
** Library name: XI_MacrosLib
** Cell name: xi_nor2
** View name: schematic
************************************
.subckt xi_nor2 A B Y
.prot FREELIB
H]=3g\#M+)123#q+:=_78O<5<) 2,.q+:r$*P7*[!=g(:9qpy
3[J$2#F:\0u$+zk:=MD/7x(I=xLY,\w+3AZ 4\D9y02\yQP:00*p[
4 39o2g79K<9-U/7\90bX4yU\WF)iz$#4(+j8za0'K:0P*77$K-/Z
F6B# 9X%V$-#yO%xPvy#TUm02,_xT:RAL67\o-]_78o<5<94 Y=#!<)10
'.3W89=280sUe9- V7*90bX4yU*WF)iI$#4(2j8za0'K:0P*P7$K-[Z
-\#*50Xz
.ends xi_nor2
