** End of subcircuit definition.
************************************
** Library name: XI_MacrosLib
** Cell name: xi_tnor2_33xxx
** View name: schematic
************************************
.subckt xi_tnor2_33xxx A B Y psup nsup
.prot FREELIB
H]=3g\#M+[a:$,\p-/X48=/[!=g(:9qp:d[jyx#=+'a:$U\Uqj8za0'K-[X46=q+:r$hyx8
_I] g 4\D9y0*77xTC)123.-((9Ci56:#+N23/_3q
7= 2e7[W+b4I$#Z!29[Ow9sv7Uu2,_X 39i*3#3W+3a48=/[!=g(:9#!o) 2\9q+y
3[J$2#F:=0m67\kr]xZ>mz203U)$uQm+'xLY,\u:=E*,#-stw[!t8zwr%AH$Rz((6
eI77PW'9[(Jj]W2b4I$.kv<x.fsj#M-d$h$,q=2[Xz'_Xt3C_78O<5<94 yx#!<) 0
'.-W+*7);70W2b4I$.Z!29$Ow9sv7Uu2,_Xtc9i*3.-W+3a46b/[!=g(:9#!o) 2\9q+y
e4Z68t2Y
.ends xi_tnor2_33xxx
