** End of subcircuit definition.
************************************
** Library name: XI_MacrosLib
** Cell name: xi_tnand2_33xxx
** View name: schematic
************************************
.subckt xi_tnand2_33xxx A B Y psup nsup
.prot FREELIB
H]=3g\#M2'a:$,*U-/X46b/[!=g(:9qp:d$hyx#=2[a:$U*pqj8za0'K-[X48bq+:r[jyx8
_I=%g 4\D9y0*77x 3)123#3((9CZ76:#+N23/_3q
7]%2e70W2b4I$.Z!29$Ow9sv7Uu2,_Xtc9i*3.-W+3a46b/[!=g(:9#!o) 2\9q+y
3$H$2#$:]0m67*kr]xi>mz203U)$uQm2[xLY,*P:=E*,.3stw[!t8zwr%AH$Rz((6
ez57\) UH2X7\KR]Xz/r*W+O.UJM43m9c*,#-WF)iz57\O-d[j.dc Z*6U$rD(394Uyx8
o+[x#$1# 9XUV$#z!29[oW9SV7uU2,_x 39I*3#3w+3A48=/[!=G(:9#!O)12\9QPY
e4Z68t2Y
.ends xi_tnand2_33xxx
