** End of subcircuit definition.
************************************
** Library name: XI_MacrosLib
** Cell name: xi_tnand2
** View name: schematic
************************************
.subckt xi_tnand2 A B Y psup
.prot FREELIB
H]=3g\#M2'a:$,*U-/X46b/[!=g(:9qp:d$hyx#=2[a:$U*pqj8za0'K-[X48bq+:r[jyx8
_I=%g 4\D9y0*77x 3)123#3((9CZ76:#+N23/_3q
7]%2e70W2b4I$.Z!29$Ow9sv7'V2,_Xtc9i*3.-W+3a46b/[!=g(:9#!o) 2\9q+y
3$H$2#$:]0m67*kr]xi>mz203%+$uQm2[xLY,*P:=E*,.3stw[!t8zwr%AH$Rz((6
ez57\) U*2X79K<9-U/7\90b7d'bRWi)cz57%(F=%28)qM+'D\H#2);bXMV_3WRba:L
)\P:<x;$#<2M$xP/9# Um0'W)-4:DA48=#=-R[H$#4(I= g 4\D9y02\yQ+:00*7[
+!+]6dJ[
.ends xi_tnand2
