** End of subcircuit definition.
************************************
** Library name: rnr_iob
** Cell name: iob_pdown
** View name: schematic
************************************
.subckt iob_pdown extst_smpl ghigh_b gts_cfg_b hswap_en pdown io
.prot FREELIB
7=%Y(7cv:=2's$# 9xu:$+ZK:=md/%TOmUX4yI+Uw9i*P!VWR%ah$rZ(36
ez5># 9xu:$#<2m(Xp/9#Y<bXz>MZ203%+$UqUH[Xlyb+U:0P*77$K-[Z
Fhi;wzF8!d60w+*7))74#Qw[P$u\((e%:p7% -/b:(X# tw[!t8z(39CiYX+u(/z
$3.Q+h/*:$.:#+N23/_3q
7WV+$#<2>(XzT%;h:38GH#9Wi=a:ZbJ+:r[*P!Jj(9[\H#2);bah$U*((E%:P[
a=2)1-PIJW2j8za0'K-[Z
Fhirw+*7s07\) :%280S3#9E7.#[ O'x48_jXC/123#Q+h/*:$#:#+N23/_3wI]A:zBj+Y
8IiYX++W/xi 4\D9y0*7[
4#>SX!D42*q-XIVMX :=2')b#O!C[;8Y-Wi=a:ZbJ+:r[*P!Jj(9[\H#2);bahL
TxT-/bJpX#=2)1-pijw2J8ZA0'k-[z
Fhivw937uj6z92RxZt%;i:=2')<#o!c[;8y-wI=A:zBj+:R[*p!jJ(9[\h#2);BAHl
TxT-/bJpX#=2)1-pijw2J8ZA0'k-[z
Fh<vwzX0g[D2s[9;u,1*s9=xZt%v,:38g8m'u:D[*p!-+(9IZYX++W/xZ 4\D9y0*7[
aM2)1-5xJWF]a:Zxu+:]_78O<5<) 0
Zr\t;M70
.ends iob_pdown
