** End of subcircuit definition.
************************************
** Library name: rnr_spice_sanjay
** Cell name: iob_obc_del_p_b
** View name: schematic
************************************
.subckt iob_obc_del_p_b in loc_gnd loc_vcco out pdelsel_vccaux pdelsel_vcco
+pdelselb_vccaux pdelselb_vcco
.prot FREELIB
%/X T,/#+xXp/9#/-2_0
'\\2c9.MJ7*;9r0(3-/Y%K=M'7c :r.A.O\;:=md/%TOmUX4yb+l:ra:Zh# 7)%2\Yq6394Uy=8
o+[fJ$m$2:]p(39<=Q\>aGR4wO*Igh#Swfm>gA#dw+o.ujm43M9C*5!Ywf)1-)7\o-'xmv_.P:00*7[
49+x12V0%S!=726Y<=<*iG<Sg$R3X787%v%CgzV7\90b7d'j;Wi)%-*7%((E/28)qU:0P*==#!<) 0
'\\239id[62 o9P(36c  9id[62 o9id[62 o9[Ow9sv7Uu2,_;xP9i*s!RWR%a:$rZ((6
eIJ=],:M4'$.D)Fb2lX69/%MX T,/#+xXlwS/Y%K.26\TK Me)s7X(cEH23_JxcSXz'_-WR%a577$K-[Z
F>.SP:m4'$.d)fB2L.+G/098Z$,t/Q\>aW7*90B7D'J;wI)%-*7%((e%V$#4(C94 Y33wrBAHl
)KT /x t,/#+Xxiv0%k9R3g<sGV:w[23mGs6k>D$.KV<X.FSJ#m-'bV$,Q+h'h28)Qu:0p*==#!<) 0
Zr\t;M70
.ends iob_obc_del_p_b
