** End of subcircuit definition.
************************************
** Library name: rnr_spice_sanjay
** Cell name: iob_obc_del_n_e
** View name: schematic
************************************
.subckt iob_obc_del_n_e in loc_gnd loc_vccaux out
.prot FREELIB
7O[h$M$2:_k23MgSZ=P23MgSZ=P28\TK Mej07X(3E1)$,q+HUXMV_JWRba:L
)K (9KX$4\wfm>gA#dwfm>gA#dw+o.ujm4up9C*77%((e%s$Rd((94uYX8
oU] 2+N##+9ID[69/%54F$,t/Q\>aGR4w2o.ujm4up9C*7!ju:RA:zJUwr%A:$Rz((6
eO6x#vRxXx+7%v%C-A[1$O:r.A.+g/'0e26\TK Mej07X(c9i*P!-I:=e*57$;-! 2\9qpy
e4Z68t2Y
.ends iob_obc_del_n_e
