** End of subcircuit definition.
************************************
** Library name: rnr_spice_sanjay
** Cell name: iob_obc_lvlsh_n_a
** View name: schematic
************************************
.subckt iob_obc_lvlsh_n_a in init_vccaux_lvlsh_b loc_gnd loc_vccaux loc_vdd
+out
.prot FREELIB
%'X\V-wWFM>Ga#DW%)*-0d8
/(98Zx7%V%cGZv7G(C$b) [
g3:=2'g7%v%CgzV7g(3:Bv [
49+UX78-##+9id[62 o9id[62 o9[Ow9#M-'Xlyx++w9[fy<#!o)12\9q+y
3Mij=Yw+*7;$4\w+*7T57%V%c-a[1$o:]MD/%toCix4YJ+iM9I*p!-i:=E*57$;-! 2\9QPY
3Mij=vw+*7e57\) 5xLWs/y%k=m'7%V%c-a[1$o:]MD/%toCix4YB+4W9I*p!-i:=E*97$;-! 2\9QP:=GaW#QuY
3Mij=Uw+*7T57:;[4xLWs/y%k=m'7%V%c-a[1$o:]MD/%toCix4YJ+iM9I*p!-i:=E*57$;-! 2\9QPY
3Mij=rw+*7;$4\# c-a[1$oQR-L///F:R.a.+G/'0E23mGs6k>;\)#TUm0'W)-4:DAHzB#=-/bJ)7$;-/xm/_jq
7O$'7b# 9xFY$#<2'9id[69/%54f$,T/q\>Agr4W2O.UJM4UP9c*s!V3:ra:ZbVW+3aj$rD(*[XM/_3Q
7O$'7=#vRxX78-# 9xFj$,T/q\>Agr4W2O.UJM4UP9c*5!Rj:ra:ZbVW+3aY$rD(*[XM/_3W+n>d8_-Q
7O$'7j#[o-,2H#0W+*7E97%v%C-A[1$O:]md/%TOcIX4yj+Im9i*P!-I:=e*57$;-! 2\9qpy
3MZje#VrXxZt%[wfm>gA#dwfm>gA#dw+o.ujm4up9C*77%((e%s$Rd((94uYX8
oU=7Hp7\) 5x787%V%cGZv7%V%cGZv7\90B7D'BrwI)U23_jXC:xZ'_3+:0p*==#!<) 0
'\\2e9.MJ7c [9id[62 o9id[62 o9[Ow9sv7'V2,_;WF)1-5h# 7)H2\Yq6394Uy=# ZK.zyb8
oU=7H$DdF.98Zx7%V%cGZv7%V%cGZv7\90B7D'BrwI)U23_jXC:xZ'_3+:0p*==#!<) 0
'\*3:W[/$4\WFM>G<YDWFM>G<YDW2O.U$UqU:ra:ZxuW+3ahP7$;-! 2\9qpy
e4Z68t2Y
.ends iob_obc_lvlsh_n_a
