** End of subcircuit definition.
************************************
** Library name: rnr_iob
** Cell name: iob_obc_drv_xp
** View name: schematic
************************************
.subckt iob_obc_drv_xp io loc_vcco opp
.prot FREELIB
7O$'P7cv:M$I$,T/q\>Aw7%v%C-A[M#tuM0'w);3:dah5!RI:ra:ZbyWR%ah$rZ((9e yx+3>IXf/_Jx)IV2'Og;-/B))<#OZK0*P!-IP9[![M\(c6
eI7EJW!MXd6.#=0KDp[STWFM>G<Sgv:]md/%TOmUX4y=-xP:Xlyx+Ue94 y=#!<)12'Yq+HU/+$)Z((EJ+074d%%a:ZjV4:3gA/_Jxc:V28Ogv+)%0
Zr\t;M70
.ends iob_obc_drv_xp
