** End of subcircuit definition.
************************************
** Library name: rnr_spice_sanjay
** Cell name: iob_obc_del_cz
** View name: schematic
************************************
.subckt iob_obc_del_cz delout_n_a delout_n_b delout_n_c delout_n_d
+delout_p_a delout_p_b delout_p_c delout_p_d delin_n_a delin_n_b
+delin_n_c delin_n_d delin_p_a delin_p_b delin_p_c delin_p_d
+loc_gnd_del vccaux vcco delin_n_es delin_p_bs delout_n_es
+delout_p_bs delout_p_e delout_n_e delin_p_e delin_n_e delout_p_es
+delin_p_es pdelsel_vccaux pdelselb_vcco pdelsel_vcco
+pdelselb_vccaux
.prot FREELIB
7WP(36\S9bX T,c q=D(/7%v%CgzV6D)F9-A[1$O:%2lwrsS+C2U$4TfqM3A.Y<=q=D(/[
4#o*iG66<K:%2lH#/tq*023MgSZ=PGV0%W6K>d$Y<=007G66<K:]P(39<=q\>Agr4Q
$]P(39<=q\>Aw7*;9r0(3-/Y%K=M'7*;9r0(3-/Y%K.2HM0S0->GV0%S2C2UL
)C;9RdZ.s#;9R8Z.#//:R.a.o\;Q%2L$+G/'0E2v0%VrXdZ.s##0-dDxs/;9RdZ.s8
o!%2L../F<9p(34\s2c3u$,t/QN[ .y<=:\>aW7d)fm4'../F<9$ t,z)fc-a[1$oY
8$ t,z)fc-a[m#TO*Iut,0s6k>;\)#TO*Iut,0s6k>D$4tFQm3a.y<=Q]d//[
4#o*iG66gWo*i786*S%9id[62 oCP(379/%MX T,T! C$G[7*;9r0(369/%54fL
T*;9R0(369/%mxiv0%k9R3g<sG$r3xiv0%k9R3g<sGV:w./.m0/Q%2L..//Y
38 t,/ Q*x t,C Q=d($,t/QN[ .y<=:\>aGR4wO*ID\%/ Q*x7W-/V[kd t,/ Q*z
Fhy<=Q=d/$y<=!=dZ.-#=0kd!8y/;9RxP[s[!79p(3m$2Q=d/$4tFQm3a.y<=Q=d/l
)C;9Rdi.-#;9R8Z../F:R.a.o\;Q%2L$+G/09p(3m$2Q]d/$.d)fB2L.+G/'0E0
o.D)Fb2l.+g/09$ T,Z)F-Dp[S[!79$ T,Z)F-Dp[STW!M3Gw-gSo*iG660Q
7WP(36*S99P(34\S2C223MgSZ=PGV0%W6K>d$Y<=007G66<W2%2l/0%S6K>;\)8
_2%2L/0%s6k>D$.d)fB2Lx69/%54F$.d)fB2Lx69/%mx7W-/V[kd t,/TQ*z
Fhy<=Q=d $y<=!=dZ.y#=0kd!8y/;9RxP[s[!79p(3m$2Q=d $4tFQm3a.y<=Q=d l
)C;9RdZ.1#;9R8Z.#/$:R.a.o\;Q%2L$+G/'0E2v0%VrXdZ.1##0-dDxs/;9RdZ.18
o!%2L../;:%2Lh#/TQ%xLWs/D+%d t,#y%k.2v0%VrXdi.y#TO*Iut,/y%k=m'[
ato*iUT,/Y%K.26Y<=<*i/.+g/'0e26Y<=<*i/.+g/098dX6Tf%CP(36*So6
e7V0%S2C=2V0%#+C$Gg7%v%CgzV6D)F9-A[M#;9r.MJ6*S'9$ T,Z)FC-A[1$Oy
8$ t,z)fc-a[m#TO*Iut,0s6k>;\)#TO*Iut,0s6k>D$4tFQm3a.y<=Q]d;l
!$ 2y.'l
.ends iob_obc_del_cz
