** End of subcircuit definition.
************************************
** Library name: rnr_iob
** Cell name: iob_lvds_drive
** View name: schematic
************************************
.subckt iob_lvds_drive Term_EnableN_0 Term_EnableN_1 Term_EnableN_2
+Term_EnableN_F0 Term_EnableP_0 Term_EnableP_1 Term_EnableP_2
+Term_EnableP_F0 a_out b_out cbit_diff15_vccaux cbit_diff15_vcco
+cbit_diff18_vccaux cbit_diff18_vcco cbit_ext_vccaux cbit_ext_vcco
+cbit_ldt_vccaux cbit_ldt_vcco enable_vccaux enable_vcco
+enableb_vccaux enableb_vcco in nbias pbias por term_a_out
+term_b_out vccaux vcco
.prot FREELIB
7W7(:\/t0ro3$1/vRxX/.M$2:\.U..\p:\.U..\U:W./.,9;<C7(:\/tF<60
'4\v;UDlV%/peC +.1$O:K37J6%; C-A[1$O:K37J6D#Tj +.+g/'0e0
oS0# CP7 d3lq\>Agr4W%-8'.,D2q[VG7>/Y%K=M'60W6K>;\)#O!C7zw8;Q
$d[)yx+h(/Xl8jq+H'/:$U\3qj8za0'K-[X48bq+H21:$,\U-/Bj)x8
_I=%g 4\D9y0*77x 3)1-9Xjwf= *p!-i(9CZ76:#+N23/_3wI]%*7!Y+(6
:l6bq+H'/:$U*Uqj8za0'K-[X46=qpHS1:$,*p-/Bj)x#M2[D\H#2);bahL
TxTM) -*Xjwf]U*p!-i(9CiS6:#+N23/_3q
7W37g9/9R32U$S0# CP7 d34q\>Aw7gf!xD Hd:peC-A[M#/[W7GT)sS6K>dL
TGF!XdLv%/y%k.2t#[Ff*dP[stw9==/300s6k>D$#0#'BxZx4[kQ*E'$#0#'Bd!t#8
_+-8;/6%; [xZx4[kQRp'57*F!5026-C$<cG(87*F!50g3y32[cG(8[
at[W=U.,D2c-D!T##Y%K.2HM0SF\PU.-c$<CmM'[
4=6%0Gg6<O 9=z76<O 93z76<O C.z32# [W=U.042:=>d>7[S00726-c$<Cg(87*/0OZ
$<sGV:w./.,9;<cp3<6<o iz
F3+dkQ-d('%#F+[d('%#$+[d('%/V+RO28-C$<c2Fj7\/0ox/.m$2:]37G9/D9=xi[mKq
$\>Aw7cv[CipV9/;;\D('%RQ
7WipV9/$:5[h$-\pq-X;8=#$+'X/8=#f+[X/8b# [W=U.O< :=37g9/=ox 28-c$<Ci Jb8
_+k.o$1/VrXxix4[kQN2Z$.0#'BdLv=SFQN2Z$.0#'BdLv%-FQN2Z$.GVU9-a[m8
_!m3g3+dkQ%6P:<8
o!R- /60w[= 2G#3s[93Z770 C9=Z77[ 39=Z57\F!50gA0\w+-8;/6%; [xZx4[kQRp'5[
a %Mm2X6T! 9$/H1ZSZ*[26-c$<Ci 7%0SZ*[26-c$<Ci Jb0SZ*[26ST9:\>Aw[
a#0-Dl<YZSoY-30[
4#oW_\.%<5u97(:\/)+53lT#/+:x23>6< '-i(863W *6O.0\$[r2z.b8
_ *6o.0\$[R2Z.Djw *6o.0\$[R2i.X#29yMgt#[Ff*$g77S);od(810=9]dJl
TS);od(810=9]d\p7[s0072x6t! 9-a[m#y0Bdi8=#y0Bdi8B##0-dL<yzsOX%0
'4uI(9>/H%/=oxDh063lq\>Agr4W%-8'.,D2q[VG7>/Y%K=M'60W[= GT)sQ
$-[h.042qM[le79/%54f$4TfqxgG3YsS20P7/10=96
e7(h3W%-8'.,D2q[VG7>/Y%K=M'7gf!xDlV%/pPC v.+g/'0eGX7[ 3C2fJ[
a$+[D('%/v+ro2<Sg$R3X7w-/2ZCi J6*!oW0;X,<Q
7W$3TY'Y:5[h$1\pq-X;8=/)7xX;8b#$+UX/8=#f+[D/$-\pq*e'$-\U:-[)L
TGF!XdLv%/y%k=m'7C :=2'5Xrw+*7Jpe#)+53Lt69/%54F$0\$[R2/.+G/'0E26m'q
$\>Agr4W6K>d$4Tfqr- /6*59%6pL
)C 6cI j63LQ[v2[-C2QRp'.=rs3sdP[s[!7c32<sG$r3xax4Ssf%7g7</PEc-a[1$oY
8E7.%C 69CZYX+Jp/xL8_jXC:128DC z*6uY=#m2) -0Xjwf]A:zBv+:]_78o<5<) 0
'4\Yq*e'8M'=oxD;\)# 9x%:;79/%54f$#<2c/V2'4/2!=-2,#q+H$1:$,\((E%SP[
a TW[!T8Z(39cIy=+I3/Xl6_Jxc:126dc Z*6Uy=8
o!=.356<o cI j6[!79>/h%/)7XdP[s[!79>/h%/=OXdH063LQ\>aGR4w+*7Jpe8
_6k>;\)#o!c7ZW8-wI= *p!U+(9IZ7_jXC:12,#3stw[!t8z(39CZ5_jXW/10
o,\U-/Bj)x#M+'D\H#2);bah$U*p-[BS7x#=2[a:ZbV+:d$h.dc Z*6Uy=8
_I]%*7!vP(9Ii5_jXC:12,.-stw[!t8z(36
BM8.'v 6
.ends iob_lvds_drive
