** End of subcircuit definition.
************************************
** Library name: rnr_spicemodel
** Cell name: iob_schmitt
** View name: schematic
************************************
.subckt iob_schmitt hysb in onb out_comp out_true vcco
.prot FREELIB
%/X7.S#Y<bXAyE+UwjZ
a77Cs[9-u/7G(32bV [
g3:=2'(h#Y<bXAy=JxPjZ
a)7\) [%+$+zk:kATzB:q
%'XzT%ul:\0U$SqpcE + [
4 3[XzT%uI:WD/$+ZK:\0U$#kv<x.fsj#M-[B:07%((E/28)q4:0P*P7$K-/Z
F8<Yw+*7T*7C :\0u$+zk:=MD/%toMux4YH+,:RA:zH# 7)j2\yQ+:00*7[
4 3'X7.-#v+-Xp/9#Y<bXz>MZ203u)$Uqp:ra:Zh#!o)12\9q+y
3[J$+zk:\0u$+zk:\0u$#KV<X.FSJ#m-:bJ$,Q+h:xZ'_-wr%A577$k-[z
F8$jw+*7ep7Cs[9[(jiYw6B028\tk mE)S7x(MevH$,Q+h:xZ'_;wr%AH$Rz(36
ez0I##q-X787\) $H2<9ZW+O.UJM43m9c*)!]WF)1-)7\O-2XMV_JWRbahL
)KT39.mj6S5r*xZt%3up9- v79;O9$oW9#m-[by;7%((e1T$#4(>94 Y=#!<) 0
'\*+:M4'.ST929-U/7\) [%+$+D;:]md/7X(3EJ23_Jx($Xz'_-WR%a:$rZ(36
eIP7\) [%+$#<2w:XpVY#Yo%XI>MZWi)1-9=#=-/B:(7\O-[12\Yqp:00*7[
4t>9- V79;o9- V79;o9$Ow9#M-[B)77%((E1t$rD((94Uyx8
oU= 2WRSs y4($#<23'v2<9zw6B028\tk:DA:z>rwf)1-pi# 7)/2\yQP:00*7[
49+/Xd\%//0O$2<YDW+*7h5<#Y<bXz>MZWi) -57%((E1t$rD(394Uyx8
o+/xZt%3up9[(jivw6B02<9zw+o.u$uQ+hs/+$,Q+h/*28)QP(94 YX#!<) 0
'.;W+*7EP7H:<-Xp[STW6K>d$.kv<x.fsj#M-:Bj$,q+H'H28)qU:0P*==#!<) 0
'.3U:=2'(h##q-XpVY#Yo%XI>MZ203u)$UqUH'V23_JxcSXz'_3+:0P*P7$K-[Z
F6$;w!c>2W#0w6k>D$+G/09$oW9SV7uU2,_;XEixLYX+uE9[FY=jwr%A:$Rz(36
eI0$##q-X787cS%9-A[M#tuM0'w);3:da)$,q+H'H28)qj:0P*77$K-[Z
-\#*50Xz
.ends iob_schmitt
