** End of subcircuit definition.
************************************
** Library name: rnr_iob
** Cell name: iob_tnor3_33xxx
** View name: schematic
************************************
.subckt iob_tnor3_33xxx A B C Y nsup psup
.prot FREELIB
H]=3g\#M2UahZh#=2Ua:ZbyWi]uG 4\d9Y0*77Xtc) -)7%tc)1-5>#M2'D\H#2);bahL
TxT3) -)7%T3)1-5>#m2[d\h#2);BAH$u\3-[xL8JQ+h:x48J/[!=G(:9QP:D[JY=8
_f=%*p!vwI=%g 4\D9y0*77x 3) 23#3((e/2,#3stw[!t8z(36
eO6%JW+*7))7gW2b4I$.Z!29$Ow9sv7Uu2,_Xtm9i*3.;W+3a46j/[!=g(:9#!o) 2\9q+y
3$J$#<2Msx/$#<2M:xi/R*w2o.ujm43M9C*,.-wf)Ii57\o-D$J.DC z*6u$Rd(394uYX8
o2[x#$1# 9XUV$.z!29$oW9SV7uU2,_xT39I*3.3w+3A46=/[!=G(:9#!O)12\9QPY
3MZjX#::kxZ/R*w+B4i$#KV<X.FSJ#m-D[)$,Q=+uxZ'_x Mc_78o<5<94 Y=#!<)10
'#-W893289$t:=0M67\90b7d'j;Wi)cz57%(F=%28)qM+'D\H#2);bXMV_3WRba:L
)\P:<x;$#z!29[u\.# Um0'W);3:DA48=#=-R[H$#4(I= g 4\D9y02\yQP:00*p[
+!+]6dJ[
.ends iob_tnor3_33xxx
