** End of subcircuit definition.
************************************
** Library name: rnr_spice_sanjay
** Cell name: iob_obc_del_n_es
** View name: schematic
************************************
.subckt iob_obc_del_n_es in loc_gnd loc_vccaux out
.prot FREELIB
7O[:$nBW!=XlwS/d+%XlwS/d+%Xz>MZ203%+$Uqp:ra:ZbVWR%a:$rZ((6
eO8=#vRxXx+7%v%CgzV7%v%CgzV7\90b7d'bRWi) -Pj#=-/B)$rD((94Uyx8
oU]12WRSwj_xLWs/y%k=m'7%V%c-a[1$o:]MD/%toCix4YB#=-/bJ)7\o-'xmv_.P:00*7[
492[Xx+7c :r.A.+g/'0e23MgS6K>;\)#tuM0'w)-4:dahZx-WF)1-sI#!o)12\9q+y
e4Z68t2Y
.ends iob_obc_del_n_es
