** End of subcircuit definition.
************************************
** Library name: rnr_spice_sanjay
** Cell name: iob_obc_pred_pfx
** View name: schematic
************************************
.subckt iob_obc_pred_pfx loc_gnd loc_vcco opp oppi pslew_lowvcc
.prot FREELIB
7O$'P7Tt29.I64#=0KDp[STWFM>G<Sgv:]md/%TOmUX4yj+4:ra:ZbyW+3aj$rD(*[XM/_3Q
7O['P7Tt29.I64#=0KD!8Y#=0KD!8Y# uM0'w);3:da)$,q+H:XMV_JWRba:L
)K  'xD6.#V2]8280S3W9ID[62 O9[oW9SV7uU2,_3Xp9I*p!vwr%A:$Rz((6
eO8%3W+*7)(7*KF*cG3MXY%KXlwS/d+%XlwS/d+%Xz>MZ203u)$UqpHIXlyx+I:0P*P7$K-/Z
-\#*50Xz
.ends iob_obc_pred_pfx
