** End of subcircuit definition.
************************************
** Library name: rnr_spice_sanjay
** Cell name: iob_obc_lvlsh_p_bs
** View name: schematic
************************************
.subckt iob_obc_lvlsh_p_bs in loc_gnd loc_vcco loc_vdd out plvlsel_vccaux
+plvlsel_vcco plvlselb_vcco por_b_vcco
.prot FREELIB
7O[)$4\f:W[23MgSZ=P23MgSZ=P28\TK:dahZ$#=-/B:(7\O-[12\Yq6394Uy=8
oU]7H77t! 98Zx7\) [%y$,t/Q\>aW7*90B7D'J;wI)U-97%((e%V$#4(E94 Y33wrBAH$#2/0=AJl
)KT [f2 y0\:=2'G6C  9ID[69/%mxLWs/y%k.26\tk mE)S7x(Ce y$,Q+h'h28)Qu:0p*==#!<) 0
'\*23UX\V-wW!=3280spm:XlwS/Y%K.26\TK Me)s7X(cE )$,q+H'H28)qh:0P*==#!<) 0
'\*23SXzT%[W!=XzT%33e9id[69/%MXI>MZ203u)$UqUH[u23_JxcSXz'_5WR%a577$K-[Z
F>.SP)9[(j1#[O-,gh#Swfm>g<sGV:R.a.+G/09$oW9SV7uU2,_-X32xLYX+uE9[FYB#!O)\H$Rz(36
eO6%3+:M4'$#<2'C8zJ7%v%C-A[M#=0KDp[STW2O.UJM43m9c*s!5WF)1-5># 7)J2\Yq6394Uy=# ZK.zyb8
oU]7H)7\) [%y$#<2'9ID[69/%mxLWs/y%k.26\tk mE)S7x(Mej23_jXCsxZ'_Ywr%A577$k-[xZAst -'z
F>.S,:=2'G6C  9$L<,z)fc-a[m#=0kdP[stwfm>g<sGV:]MD/%toMux4Y=#=-/bJ*7$;-/xm/_jq
7O$'7I# 9x )*7:;[4XlwS/Y%K.23MgS6K>d$.kv<x.fsj#M-'Bhs7%((E%v$#4()94 y33WRbahL
)KT ix\v-Ws!=726,9=<*I/.+G/09_ xg#=0kdP[stw2o.ujm43M9C*7!5wf)1-5>#!O)12\9Q+Y
3Mij>#[O-,gh#Sw2R-L/0%s6k>D$,t/Q\>aW7%V%c-a[m#TUm0'W);3:DAH$,Q+h'h2\yQ+:00*p[
492x +$#<2'9$d:60S6K>d$,T/q\>Aw7%v%C-A[M#tuM0'w);3:dahZb#=-/Bj*7$;-/XM/_JQ
7O$')7\) 5D78%#tF\iUT,0S6K>d$#<2'9id[69/%MXI>MZ203u)$Uq3H'Xlyx+Ue9[fyb#!o)\h$rZ(36
eO6%3U:=2'7jVW+*7;$,T/q\>Aw7%v%C-A[M#tuM0'w);3:dajZ=;WF)1-5># 7)J2\Yq6394Uy=8
oU=7)$DdF.9$L<,z)fc-a[1$o:Jp/M6C  9ID[62 O9[oW9SV7uU2,_3X)9I*p!vwr%A:$Rz((6
eO8%yW0072H#0WFM>Ga#DWFM>Ga#DW+O.UJM43m9c*)7%((E/28)qpP94 yx#!<)128Ogv+)%0
'\\23/XzT%[W!=XlwS/d+%XlwS/d+%Xz>MZ203u)$Uq3HSXlyx+I:=e*5x#!o)\h$rZ(36
eO8%-W+*7;$.%YFb2l.+g/'0e280s$qW['$,T/qn[ $#kv<x.fsj#M-UBj$,q+H:Xz'_-WR%a577$K-[Z
F>#SP:Jp/M7C [9ID[62 O9ID[62 O9[oW9SV7uU2,_;XE9I*p!vw+3AJp7$;-! 2\9QPY
3MZje#VrXxZt%[wfm>gA#dwfm>gA#dw+o.ujm43M9C*77%((e/2\yQ+:00*p[
g3:jP/m6c  9id[62 o9>*0!-[y
k 280S$:R.a.o\;:kA)*D8
/C9_ xg#=0kd!8y#/-'*-5D8
/>9[(j1/#+XxLWs/D+%xaY=v[Y
k12h#0wfm>gA#dw%)*Jzi:q
7O$)$4\f:W[23MgS6%P23MgS6%P26\TK:da)Zb#=-/B:(7\O-[12\Yq6394Uy=8
Xr=$3W%8
.ends iob_obc_lvlsh_p_bs
