** End of subcircuit definition.
************************************
** Library name: rnr_spice_sanjay
** Cell name: iob_obc_pred_n_b
** View name: schematic
************************************
.subckt iob_obc_pred_n_b gtl0 gtl1 gtl2 loc_gnd loc_vccaux nslew0 nslew1
+nslew2 nslew3 nslew4 nslew5 opn opn_del opni opni_del
.prot FREELIB
7O['07\) [uY$,T/q\>Agr4WFM>Ga#DWFM>Ga#DW+O.UJM4UP9c*7!5WF)1-)>#!o)12\9q+y
3[Jp># 9X yp7%V%cGZv7%V%cGZv7%V%cGZv7\90B7D'BrwI)1-;<#=-/b+$Rd((94uYX8
oU=7H$#<23uj2A%%+:R.a.o\;:R.a.o\;:=MD/%toCix4Y=+4:RA:zBvwr%A:$Rz((6
ez7IRW+*7h9x#d r123MgSZ=P23MgSZ=P28\TK Mej07X(3E%23_Jxc:XMV_JWRba:L
)K  $xD6#/;9RxD6#Cw+*7HS$#=0kd!8y# Um0'W)-4:DA+$,Q+h'/28)Qu:0p*==#!<) 0
'\\2c9[(J=;h:n7l77%v%CgzV7%v%CgzV7\90b7d'bRWi) -07%((E%S$#4(c94 y33WRbahL
)K  /xZt%3H(9G'3B#=0kd!8y#=0kd!8y# Um0'W)-4:DAHz=#=-/bJ)7\o-:xmv_.P:00*7[
49+xJ280spm2XlwS/d+%XlwS/d+%XlwS/d+%Xz>MZ203%+$Uq+H(V23_JxP94 yx#!<)10
'#33c9.I87Tt+WXzT%3h(9id[62 o9[Ow9sv7'V2,_VWF)1-5h# 7)%2\Yq6394Uy=8
oU=7)$#<23uj2A%%u:R.a.o\;:R.a.o\;:=MD/%toCix4Y=+LM9I*p!-i:=E*S7$;-/xm/_jq
7= Y57\) [J:$,T/q\>Agr4WFM>Ga#DWFM>Ga#DW+O.UJM4UP9c*7!yWF)1-)>#!o)12\9q+y
3[:$#<23212A%%P:R.a.o\;:R.a.o\;:=MD/%toCix4Y=+u:RA:zBvw+3AJ$Rd(*[xm/_3q
7O$'7=# 9xu:;7\KF*c)$,T/q\>Agr4WFM>G<Sg$R3XI>MZ203%+$UqpH'Xlyx+U>9[fyb#!o)\h$rZ(36
eO6%;j:=2'5>3WFM>G<Sg$R3XlwS/Y%K=M'7%v%C-A[1$O:]md/%TOcIX4y=#=-/BS*7$;-/XM/_JQ
7O$'sh# 9x%+(7%v%C-A[1$O:r.A.+g/'0e23MgS6K>;\)#tuM0'w)-4:dah$,q+H'/2\Yq+:00*P[
492x :$M* :M$zH7\) 'Vt$,T/q\>Agr4W2O.UJM4UP9c*07%((E%S$#4(m94 yx#!<)10
'\*23'XzT%-4w9[U30X3:r.A.+g/'0e23MgS6K>;\)#tuM0'w)-4:dahZb#=-/Bj)7\O-'XMV_.p:00*7[
492xuE$#<2m/F23MgS6K>;\)#=0KDp[S[!79id[69/%54f$.kv<x.f5<#M-[Xlyx+U>94 yx#!<)10
'\*2(9[(JbRj:r.A.+g/'0e23MgS6K>;\)#=0KDp[S[!79$Ow9sv7'V2,_3xc9i*P!Vl:0P*P7$K-/Z
F>.Sip9[(jBrJ:R.a.+G/'0E23mGs6k>;\)#=0kdP[s[!79$oW9SV7'v2,_3XC9I*p!-i:0p*p7$k-/z
F>.Si)9[(jJj,:R.a.+G/'0E23mGs6k>;\)#=0kdP[s[!79$oW9SV7'v2,_3XC9I*p!-i:0p*p7$k-/z
F>.SiE9[(jBrJ:R.a.+G/'0E23mGs6k>;\)#=0kdP[s[!79$oW9SV7'v2,_3wf)1-5H#!O)12\9Q+Y
3MijJYw+*7)pe#=0kdP[s[!79ID[69/%54F$,t/Q\>aGR4w2o.ujm4up9C*77%((e%s$Rd((94uYX8
oU]7sp7\) 'f:$,t/Q\>aGR4wfm>g<sG$r3xLWs/y%k=m'7*90B7D'BrwI) 23_jX>sxmv_jwrBA:l
)KT : 280S3((xLWs/y%k=m'7%V%c-a[1$o:R.a.+G/'0E26\tk mEJ07x(39I*p!-i:0p*p7$k-/z
F>.SiC9[(jBrJ:R.a.+G/'0E23mGs6k>;\)#=0kdP[s[!79$oW9SV7'v2,_3wf)1-5H#!O)12\9Q+Y
3MijJrw+*7J0i#=0kdP[s[!79[(jB]+:R.a.+G/'0E26\tk mEJ07x(39I*p!vL:0p*p7$k-/z
F>.SiM9[(jBrJ:R.a.+G/'0E23mGs6k>;\)#=0kdP[s[!79$oW9SV7'v2,_3wf)1-)>#!O)12\9Q+Y
3$J7$# 9X%H)7\kf*C:$,t/Q\>aGR4wfm>g<sG$r3xi>mz203%+$uQPh'xLYX+iE94 YX#!<)10
'\*2P/XzT%;+#9id[69/%54f$,T/q\>Agr4WFM>G<Sg$R3XI>MZ203%+$Uqp:ra:ZbVWR%a:$rZ((6
eI7I5W+*7j0I#=0KD!8Y#=0KDp[S[!79id[69/%54f$.kv<x.f5<#M-[BY07%((E%S$rD((94Uyx8
oU]7H97tT+cp(37tT+wd t,# 9XU:;7%V%c-a[1$o:]MD/%toCix4Y<#=-/bJ)7\o-uxmv_jwrBA:l
)KT [*280S3((xZ/,<mp9ID[69/%54F$,t/Q\>aGR4w2o.ujm4up9C*7!-wf)1-5H# 7)v2\yQ+:00*p[
492xu)$#<2m/F23MgS6K>;\)#=0KDp[S[!79id[69/%54f$.kv<x.f5<#M-[Xlyx+Ie94 yx#!<)10
'\*23UXzT%-4w9[U30Xp:r.A.+g/'0e23MgS6K>;\)#tuM0'w)-4:dahZb#=-/BS*7$;-/XM/_JQ
7O$')E# 9x%+(7%v%C-A[1$O:r.A.+g/'0e23MgS6K>;\)#tuM0'w)-4:dah$,q+H'/2\Yq+:00*P[
492xVh$#<2m/F23MgS6K>;\)#=0KDp[S[!79id[69/%54f$.kv<x.f5<#M-[Xlyx+U>94 yx#!<)10
'\*239[(JjJ,:r.A.+g/'0e23MgS6K>;\)#=0KDp[S[!79$Ow9sv7'V2,_3xc9i*P!Vl:0P*P7$K-/Z
F>.S4C9[(jJj,:R.a.+G/'0E23mGs6k>;\)#=0kdP[s[!79$oW9SV7'v2,_3wf)1-5H#!O)12\9Q+Y
3$H(B# 9X%+(7\kf*Cs$,t/Q\>aGR4wfm>g<sG$r3xi>mz203%+$uQPh'xLYX+u>9[FYH#!O)\H$Rz(36
eI;7\) 'Vt$#Z=9dV23MgS6K>;\)#=0KDp[S[!79$Ow9sv7'V2,_3xc9i*P!-I:=e*07$;-/XM/_JQ
7O$'5I# 9x%+(7%v%C-A[1$O:r.A.+g/'0e23MgS6K>;\)#tuM0'w)-4:dah$,q+H'/2\Yq+:00*P[
492x*280s3((Xz/,<M39id[69/%54f$,T/q\>Agr4W2O.UJM4UP9c*7!-WF)1-)>#!o)12\9q+y
3MijBYw+*7)pe#=0kdP[s[!79ID[69/%54F$,t/Q\>aGR4w2o.ujm4up9C*7!-wf)1-5H#!O)12\9Q+Y
3MijHUw+*7J0i#=0kdP[s[!79ID[69/%54F$,t/Q\>aGR4w2o.ujm4up9C*77%((e%s$Rd((94uYX8
oU]7)$#<2Ci*289%)I/xZt%-P>9ID[69/%54F$.KV<X.F5<#m-[bJ$,Q+h:h2\yQ+:00*p[
492xuY$#<2m/F23MgS6K>;\)# 9x%v77%v%C-A[1$O:]md/%TOcIX4y=#=-/BS*7$;-/XM/_JQ
7O$'*7\) U1E$#Z=9d%23MgS6K>;\)#=0KDp[S[!79$Ow9sv7'V2,_3xc9i*P!-I:0P*P7$K-/Z
F>.Si:=2'SX]w+BI(,X# 9X%:07%V%c-a[1$o:]MD/%toCix4Y=+u:RA:zHYwr%A:$Rz((6
eO6%]W+*7)PE#=0KD!8Y#=0KDp[S[!79id[69/%54f$.kv<x.f5<#M-[B+07%((E%S$rD((94Uyx8
oU]7H)7\) 'vT$#z=9D%23mGs6k>;\)#=0kdP[s[!79$oW9SV7'v2,_3XC9I*p!-i:0p*p7$k-/z
F>.Su#9[(jBrJ:R.a.+G/'0E23mGs6k>;\)#=0kdP[s[!79$oW9SV7'v2,_3wf)1-)>#!O)12\9Q+Y
3Mij=rw+*7)pe# <R24)7%V%c-a[1$o:R.a.+G/'0E26\tk mEJ07x(3e%23_jXC:xZ'_vwr%A577$k-[z
F>.S4:=2'5Xrw+BI(,X#=0kdP[s[!79ID[69/%54F$.KV<X.F5<#m-[bJ$,Q+h:h2\yQ+:00*p[
492xu:$#<2m/F23MgS6K>;\)#=0KDp[S[!79id[69/%54f$.kv<x.f5<#M-[Xlyx+Ie94 yx#!<)10
'\*2>:XzT%;+#9id[69/%54f$,T/q\>Agr4WFM>G<Sg$R3XI>MZ203%+$Uqp:ra:ZbVWR%a:$rZ((6
eO6%;p:=2'5<uWFM>G<Sg$R3XlwS/Y%K=M'7%v%C-A[1$O:]md/%TOcIX4y=#=-/Bj)7$;-/XM/_JQ
7O$'sb# 9x%+(7%v%C-A[1$O:r.A.+g/'0e23MgS6K>;\)#tuM0'w)-4:dahZb#=-/Bj)7$;-/XM/_JQ
H0[I:MsQ
.ends iob_obc_pred_n_b
