** End of subcircuit definition.
************************************
** Library name: rnr_iob
** Cell name: iob_lvds_bias_mux
** View name: schematic
************************************
.subckt iob_lvds_bias_mux cbit_diff15_vcco cbit_diff18_vcco cbit_ext_vcco
+cbit_ldt_vcco enable_vcco enableb_vcco nbias nbias_ext nbias_gen
+nbias_ldt1 nbias_ldt2 pbias pbias_gen pbias_ldt1b_gen
+pbias_ldt2b_gen vcco
.prot FREELIB
7W[d:j/=oxDh063l:K37J6D#Tj +.+g/09>/H%/;!j_h*69/%MXAX4sSF%7G<Sgvy
8[D:6%; c +.=Yw6B02<sGV:w./.%\V;ud)S)4o:D$)Y=+i(/xL6JQ+h'h:l
TxTMc_78o<5<) 2,.-(3e/:p7%TC)1-5>jwI]%g 4\D9y0*77xT3) -)Xjq
$r$hyx+Ue/X46=/[!=g(:9qp:d[)y=#=+Ua:ZhJ+:d[).dc Z*6Uy=#M+'ahL
T% C)1-)XjwI=%g 4\D9y0*77x 3) 23#3((e/:p7x 3c_78o<5<) 0
'4\$+%DlV%0S9=X(810=9C-A[M#/[W7G3Ysfq\>Aw7< 2Ci J=0S[9-A[M#Y<bZ
$'4/2+5[ 56;373E2,.-(3e/:p7%TC)1-5>jwI]%g 4\D9y0*77xT3) -)Xjq
$r$hyx+Ue/X46=/[!=g(:9qp:d[jy=+I(/Xl8bq+H:1:$U\Uqj8za0'K-[Z
$,#3(3e/:p7% 3)1-)XjwI= g 4\D9y0*7[
4#+5[ .,D2q*e'$0\$[r2G<Sgv:K37J6%; C2fJ69/%MX(8#/)7xDlV%/f:\>Aw79K<6
:fH6s '=Pj.j;O73X46bqpH:1:$,*U-/Bj*x#M2'D\H#2);bah$U*p-[BSPx8
_f] *p!-L(9Ci76:#+N23/_3wI=%*7!v+(9IZ5_jX>/12,#-stw[!t8z(36
:48=qpH:1:$,\p-/BSPx#M+[D\H#2);bahL
)C '=pJ.,d2Cc2Z67< '-I(.+G/09[D:6%; c +.=Yw9=$g3ySu[c32<sGV:\0ul
T4#QX[;8y-sMuEF'7xTC) -)Xjwf]%*p!-L(9Ci56:#+N23/_3wI] *7!v+(6
:l6=q+H'H:$U*pqj8za0'K-[X48bqpH:1:$,\U-/BSPx#M+'D\H#2);bahL
Tx 3) -)Xjwf= *p!v+(9CZ76:#+N23/_3q
7W[;8Y-SF%7j.0\ :*[;X,<S6K>d$M'SF%7G7</pe92z86%; 'D/$+g/09-U/[
aO!C7zg#DUqUuf')#M2'ahZhJ+:r$jyx+Ue/X46b/[!=g(:9qp:d$hy=+I(/Z
$3.3((e%Vp7xT3c_78o<5<) 2,#-(3e/:p7% C)1-)XjwI=%g 4\D9y0*7[
aM+[ahZhJ+:r[hyx+I(/X48=/[!=g(:9qpy
38Lv%/)+92ZG-%)Q\>aW7GF!XdLv%/y%k.2t#\sf%7H.-#y%k.2<9zw7wd'81\;CcU)')4q
$d$jy=+I(/Xl6bq+H'H:$U*Uqj8za0'K-[X46=qpH:1:$,*p-/Bj*x8
_I] g 4\D9y0*77x C) -)Xjwf=%*p!v+(9CZ56:#+N23/_3wI= *7!v+(6
:l8=q+H:1:$U\pqj8za0'K-[Z
Fh,d2[9>/h%/=OXdP[stw%-8'.,d2[c-a[m#y%k.2<9zw7wd'h#9sMuEF'7x -[z
$3#Q+h:1:$#:#+N23/_3wI]AHzHj+:R$*p!-L(9$\h#2);BAHl
)C=OX%gt#*w9=$g3ySu[c32t#*sf%7Jx79/%mxP/9#o!c778+/3M3EF$u\(39IZYX+i(/z
$8DC z*6uY=#m2) -)Xjwf]A:zBY+:]_78o<5<) 0
'4%; 'D(8##)+=DlV%-S[92z86%; 'Xp[STW6b02'4/2!=-Gsj4O79czy=#=+)1-)xJQ
$=_78O<5<) 2,.qpH:1:$,*((E%vP7*[!=g(:9qpy
38TSJ#/[w7g3ySs937gx69/%mxax4Ssf%7gt)Ss6k>D$+G/09-u/74#QX8Z<6;373E2,#QPY
8IZYX+i(/xZ 4\D9y0*77xT-[bspX#=2)1-5>jw2J8ZA0'k-[z
Fh,d2Q*E'.-#)+=d('%/=OXd/$0\ Q*E'.,d2:\>aW79k<9E7.%C 6cU)')4wI=AHl
T% -/bspX# tw[!t8z(39CiY=+i(/xL6_jXCs126DC z*6uY=8
o!=-g3ySs3idH*7\V;cI j634Q[h2W8/=OXdH063L:\>aW79k<9E7.%C 6cU)')4wI=AHl
T% -/bspX# tw[!t8z(39CiY=+i(/xL6_jXCs126DC z*6uY=8
o!Rp'x6< Q-x(8./=OX /.-#)+]dLv%0w6k>D$+zk:38gj4\yQuUF')#m+) 23#Q+h:1:l
T\[!=G(:9QP:D$*7!v+(9IiYX+uE/xi 4\D9y0*7[
4#F%7GT#/f:*[z.,D23C32T#\SF%7h$+g/09-U/74#qx8z<6;373e2,#qp:r[*P!V+(6
:z 4\d9Y0*77Xt-[BSPx#=2)1-5>JW2j8za0'K-[Z
Fh#t5QRp'.042:k37j6%; c-a[m#/[w7gt)Ss6k>D$s0# cI j6<o c3g<sGV:\>aW79k<6
:fH6s 0Y%Gsj4O79cz7_3WF= *P!V+(9cz76:#+n23/_3Wi=%*77% c)1-)xJQ
$d[j.dc Z*6Uy=#M2[ahZhJ+:r$hyx+Ue/X46=/[!=g(:9qp:d$jy=+I(/Z
$3.-((e%Vp7xTCc_78o<5<) 0
'4%; CipV93lq[VG>r4W9=[G3YsU:*[I.,D2c-XzX4[K:=37g9/=ox%2T#\SF%7j.-8
_9=$g3ySu[c326-C$<9$/h1zsf%7Hx62)+9-a[m##0-dL<yzsf%7o\);3Y
3I j\$o:*[Z.,d2392Z66%; -xZx4[k:=37G9/=OX 2t#\sf%7H.-#)+]dLv%3FQ-z
$6-C$<9$/h1zsf%7Jx62)+9-a[m##0-dL<yzsf%7o\);3Y
32Fj\$o:*[;x,<s6k>D$0\$[R2/.+G/092Z86<o cI j7< +c2Fj6%; c328-C$<6
:zX4[Kq*e'$.0#'bXIX4[Kqn2z$+g/098dX6%YobD('%k!7Uu0
'#k!792zg-%)q\>Aw7< '-i(X69/%MXzX4[K:=37g9/d9=Xp[STW!M3G3+DKq=mM'j;Q
H0[I:MsQ
.ends iob_lvds_bias_mux
