** End of subcircuit definition.
************************************
** Library name: rnr_spice_sanjay
** Cell name: iob_obc_pred_n_d
** View name: schematic
************************************
.subckt iob_obc_pred_n_d gtl0 gtl1 gtl2 loc_gnd loc_vccaux nslew0 nslew1
+nslew2 nslew3 nslew4 nslew5 opn opn_del opni opni_del
.prot FREELIB
7O['97\) [uY$,T/qn[ $,T/qn[ $,T/qn[ $#kv<x.f5<#M-/Bv$,q+H$%2\Yq+:00*P[
4 3U%2w.\W0][7$#<23:H23MgSZ=P28\TK Mej07X(cEV+$,q+H'/28)qU:0P*==#!<) 0
'\\2m9[(J=;h:n7l77%v%CgzV7%v%CgzV7\90b7d'bRWi) -;=#=-/Bj)7$;-/XM/_JQ
7= Y57\) [/v$,T/q\>Agr4WFM>Ga#DWFM>Ga#DW+O.UJM4UP9c*7!3h:ra:ZhyWR%a:$rZ((6
ezP7\) [/v$Os=39id[62 o9id[62 o9[Ow9sv7'V2,_3xPUXlyx+U>94 yx#!<)10
'#3jP9[(J=Vl:n7lP7%v%CgzV7%v%CgzV7\90b7d'bRWi) -0j#=-/BS*7$;-/XM/_JQ
7O['77Tt+CP(37Tt+WXzT%33)9id[62 o9[Ow9sv7'V2,_;x3(Xlyx+U>9[fyb#!o)\h$rZ(36
eO8%VW+*7hs$#d r%23MgSZ=P23MgSZ=P28\TK Mej07X(mEVh$,q+H'/2\Yq+:00*P[
49+xV280spm2XlwS/Y%K=M'7%v%CgzV7%v%CgzV7\90b7d'bRWi) -PI#=-/BS*7$;-/XM/_JQ
7=%:*7\) [/v$,T/qn[ $,T/qn[ $,T/qn[ $#kv<x.f5<#M-/Bv$,q+H2J2\Yq+:00*P[
49+x%280spm2X!J,JWFM>Ga#DWFM>Ga#DW+O.UJM4UP9c*7!]p:ra:ZhyWR%a:$rZ((6
eO8%JW+*7h)>#d r%23MgSZ=P23MgSZ=P28\TK Mej07X(cEH23_Jxc:XMV_JWRba:L
)KT 2 280SuCixLWs/y%k=m'7%V%c-a[1$o:R.a.+G/'0E26\tk mEJ07x(39I*p!-i:0p*p7$k-/z
F>.SiC9[(jB-4:R.a.+G/'0E23mGs6k>;\)#=0kdP[s[!79$oW9SV7'v2,_3wf)1-5H#!O)12\9Q+Y
3Mij<]w+*7J5<#=0kdP[s[!79[(jB]J:R.a.+G/'0E26\tk mEJ07x(39I*p!5u:0p*p7$k-/z
F>.SH(9[(jBr3:R.a.+G/'0E23mGs6k>;\)#=0kdP[s[!79$oW9SV7'v2,_3wf)1-5H#!O)12\9Q+Y
3Mij<Uw+*7J0J#=0kdP[s[!79ID[69/%54F$,t/Q\>aGR4w2o.ujm4up9C*77%((e%s$Rd((94uYX8
oU]7+97\) '%+$,t/Q\>aGR4wfm>g<sG$r3xLWs/y%k=m'7*90B7D'BrwI) 23_jX)'xmv_jwrBA:l
)KT :U280SupuxLWs/y%k=m'7%V%c-a[1$o:R.a.+G/'0E26\tk mEJ07x(39I*p!-i:0p*p7$k-/z
F>.Si>9[(jBr3:R.a.+G/'0E23mGs6k>;\)#=0kdP[s[!79$oW9SV7'v2,_3wf)1-9B#!O)12\9Q+Y
3MijHrw+*7J0J#=0kdP[s[!79[(jJjH:R.a.+G/'0E26\tk mEJ07x(39I*p!5u:0p*p7$k-/z
F>.Si)9[(jB-4:R.a.+G/'0E23mGs6k>;\)#=0kdP[s[!79$oW9SV7'v2,_3wf)1-9B#!O)12\9Q+Y
3MijHUw+*7J;i#=0kdP[s[!79ID[69/%54F$,t/Q\>aGR4w2o.ujm4up9C*77%((ejJ$Rd((94uYX8
oU]7s*7\) 'v)$,t/Q\>aGR4wfm>g<sG$r3xLWs/y%k=m'7*90B7D'BrwI) 23_jXC:xmv_jwrBA:l
)KT :f280SupuxLWs/y%k=m'7%V%c-a[1$o:R.a.+G/'0E26\tk mEJ07x(3e%V$,Q+h'/2\yQ+:00*p[
492xV:$#<2c'V23MgS6K>;\)#=0KDp[S[!79id[69/%54f$.kv<x.f5<#M-[Xlyx+Ie94 yx#!<)10
'\*2P[XzT%-4m9id[69/%54f$,T/q\>Agr4WFM>G<Sg$R3XI>MZ203%+$Uqp:ra:ZhyWR%a:$rZ((6
eO6%RU:=2'5bRWFM>G<Sg$R3XlwS/Y%K=M'7%v%C-A[1$O:]md/%TOcIX4y=#=-/Bj)7$;-/XM/_JQ
7O$'0j# 9x%j07%v%C-A[1$O:r.A.+g/'0e23MgS6K>;\)#tuM0'w)-4:dahZbyWF)1-5h#!o)12\9q+y
3Mij<vw+*7)p$#=0kdP[s[!79ID[69/%54F$,t/Q\>aGR4w2o.ujm4up9C*77%((ejJ$Rd((94uYX8
oU]7+07\) '%+$,t/Q\>aGR4wfm>g<sG$r3xLWs/y%k=m'7*90B7D'BrwI) 23_jXC:xmv_jwrBA:l
)KT ih280SupuxLWs/y%k=m'7%V%c-a[1$o:R.a.+G/'0E26\tk mEJ07x(39I*p!5u:0p*p7$k-/z
F>.SP:=2'5Brw+BI(,X# 9X Tp7%V%c-a[1$o:]MD/%toCix4Y=#=-/by57$;-/xm/_jq
7O$'7># 9x%j07\KF*c)$,T/q\>Agr4WFM>G<Sg$R3XI>MZ203%+$UqpHIu23_Jxc:XMV_JWRba:L
)*PW2xZt%-4M9ID[62 O9ID[69/%54F$,t/Q\>aGR4w2o.ujm4up9C*7!33:RA:zBvwr%A:$Rz((6
eO6%33:=2'5<;W+bi(,=#=0KDp[S[!79id[69/%54f$.kv<x.f5<#M-[Xlyx+hc94 yx#!<)10
'\*2c[XzT%-UP9id[69/%54f$,T/q\>Agr4WFM>G<Sg$R3XI>MZ203%+$Uqp:ra:Z$-WR%a:$rZ((6
eO6%3I:=2'5<;W+bi(,b#=0KDp[S[!79id[69/%54f$.kv<x.f5<#M-[B+s7%((E/v$rD((94Uyx8
oU]7H07\) [*:$#z=9D123mGs6k>;\)#=0kdP[s[!79$oW9SV7'v2,_3wf)1-9B#!O)12\9Q+Y
3$H(B# 9X%+S7\kf*Cs$,t/Q\>aGR4wfm>g<sG$r3xi>mz203%+$uQPhiU23_jXC:xZ'_-wr%A577$k-[z
F>.SPC9[(jBr3:=0Ltu;wfm>g<sG$r3xLWs/y%k=m'7*90B7D'BrwI) -0J#=-/bJ)7$;-/xm/_jq
7O$'7I# 9x%j07\KF*cj$,T/q\>Agr4WFM>G<Sg$R3XI>MZ203%+$UqpHIu23_Jx>SXMV_JWRba:L
)KT (xZt%-up9ID[62 O9ID[69/%54F$,t/Q\>aGR4w2o.ujm4up9C*7!jL:RA:zBvwr%A:$Rz((6
eO6%-+:=2'5bRW+bi(,<#=0KDp[S[!79id[69/%54f$.kv<x.f5<#M-UBvs7%((E%S$rD((94Uyx8
oU]7:$#<2CiU289%)I/xZt%-3(9ID[69/%54F$.KV<X.F5<#m-[xLYX+HC94 YX#!<)10
'.-p)9[(Jb;+:=0lTUJWFM>G<Sg$R3XlwS/Y%K=M'7*90b7d'bRWi) 23_Jx)'XMV_JWRba:L
)KT [f280SuCixZ/,<m>9ID[69/%54F$,t/Q\>aGR4w2o.ujm4up9C*7!r3:RA:zBvw+3AJ$Rd(*[xm/_3q
7O$'7$# 9x%j07\KF*ch$,T/q\>Agr4WFM>G<Sg$R3XI>MZ203%+$Uqp:ra:Z$-WR%a:$rZ((6
eO6%3+:M$z$M* !9[(JbR3:r.A.+g/'0e26\TK Mej07X(3EFj$,q+H'/28)q4:0P*P7$K-/Z
F>.SP39[(jBr3:R.a.+G/'0E23mGs6k>;\)#=0kdP[s[!79$oW9SV7'v2,_3wf)1-9B#!O)12\9Q+Y
3$e$#<2CiU289%)IixLWs/y%k=m'7%V%c-a[1$o:]MD/%toCix4YJ+LM9I*p!-i:0p*p7$k-/z
F>.SL:m$Z.y<=:m$Zh6d)f9[(jB-4:R.a.+G/'0E26\tk mEJ07x(3efJ$,Q+h'/28)Q4:0p*p7$k-/z
-\#*50Xz
.ends iob_obc_pred_n_d
