** End of subcircuit definition.
************************************
** Library name: rnr_iob
** Cell name: iob_lvds_ldtmux33
** View name: schematic
************************************
.subckt iob_lvds_ldtmux33 n_ctrl_ldtn n_ctrl_ldtp nbias nbias_ldt
+p_ctrl_ldtn p_ctrl_ldtp pbias pbias_ldtb vcco
.prot FREELIB
7]D'a6*f!50G3YsW2-8;/6%; -XI.Ss5FCi J.#t[W=U$+g/09$Ow9sv7Uu2,_RWF)1-5>#!o)12\9q+y
3$o\)G$2/xP[stw2-8;/6%; -xP[stw6k>D$.KV<X.FSJ#m-'bJ$,Qih[f28)Qu(94 Y33wrBAHl
)*s NdZx4[kQRp'$#0#'BdLv%#TQk7336%; =xZx4[k:\>aW7*90B7D'J;wI)v23_jXCsxmv_jwrBA:l
)*s20dix4[kQRp'$.0#'BdLv%0w+c>':,/=OX$2<sGV:\>aW7*90B7D'J;wI) 23_jXCsxmv_jwrBA:l
)\s Ndix4[kQRp'$.0#'BdLv%0w+c>':,/=OX$26-C$<9-u/7\90B7D'J;wI)v23_jX>94 YX#!<)10
'#k!7K=IP79K<9[/H1ZSF%72<9ZW6b028\TK Me)s7X(cE Y$,qIH'V28)qU(94 y33WRbahL
)\TOc[/h1zsf%728-C$<cI j7*s%X6L.,d2+9-u/79k<9[oW9SV7uU2,_3wf)1-)7$;-/xm/_jq
7=D'a6\f!50G3YsW+-8;/6%; 9[G[%'=qrP'87\f!502<9ZW+O.UJM43m9c*07%((E/2\Yq+:00*P[
+!+]6dJ[
.ends iob_lvds_ldtmux33
