** End of subcircuit definition.
************************************
** Library name: rnr_spicemodel
** Cell name: iob_ibuf
** View name: schematic
************************************
.subckt iob_ibuf cbnet<2> cbnet<1> cbnet<0> diff_true in in2_lvds
+lvds_true out_comp out_true schmitt_true vccaux vcco vref
.prot FREELIB
%SXzT%JU>IXp/9#/-SBt7d8
/W9p7 D-/Um0gh##y<BxaYe++pJz
a77\) / T;79k<9>*5<j[Y
kf23+dkQk.o679k<9>*0!YLt6
>hP7%YobD':r<W6b02[_RxcjZ
a07z/Ao8'j6S5r*xP/9#/-:be)D8
/)90ad\C2 c>D>.#y<BxaYJ+,>Jz
a57959JxP/9#/-(*\l
svwOw_\.st929-u/7G(Mevs [
g3:%8\ 6s5R*Xp/9#/-:Bh)d8
/(9[(jX;+M9-u/7G(C:v\l
)K  ixP/9# 9X1H(e#y<BxP/9# Um0'W)-4:DAHzX3wf) -57\o-'xmv_.P:00*7[
4 m$*2<9ZW+*7:sx;W6b02<9ZW+O.UJM4UP9c*7!Jp:rahZb# 7)%2\Yq6394Uy=8
oU=7y$+zk:=2'p=U,:\0u$+zk:=MD/%toCix4Y=++p9I*p!-H:=E*7$#!O)12\9QPY
3[+(79k<9[(jX3J#9[(jX34W9-u/7\90B7D'J;wI)/-;7%((e/28)QH:0p*p7$k-[z
F8<Yw+*7:7<Uw+*7:7i]w6B02<9zw+o.ujm43M9C*)!]wf)1-)7\o-2xmv_jwrBAHl
)KT [xP[s[!79[(jX3J#9-a[1$o:\>aGR4w2o.ujm4up9C*5!jwf) -57\o-'xmv_.P:00*7[
492x%2<Sg$R3XzT%Jpw(Xp[S[!79-A[1$O:]md/%TOcIX4yb+p39i*P!-h:=e*7$#!o)12\9qpy
3$+979/%mxZt%jPW(xP[stw6k>D$.KV<X.FSJ#m-uxLYX+uE9[FYi#!O) 2\9QPY
3$)(H#y%k=m'7\) /U:S79/%54F$+G/'0E26\tk mEJ07x(Ce123_3XC9[FYB#!O)\H$Rz(36
eO8%;W+*7:7I]W6b02<9ZW6b028\TK Me)s7X(wE%t$,q+H:Xz'_-WR%ah$rZ(36
eO8%VW+*7:7I]W6b02<9ZW6b028\TK Me)s7X(wE%t$,q+H:Xz'_-WR%ah$rZ(36
eO8%3W+*7:sx;W6b02<9ZW6b028\TK Me)s7X(wE%t$,q+H:Xz'_-WR%ah$rZ(36
eO8%JW+*7:sx;W6b02<9ZW6b028\TK Me)s7X(wE%t$,q+H:Xz'_-WR%ah$rZ(36
eO6%JW+*7:7I]W6K>d$+g/09-A[M#tuM0'w);3:dah5!RI:ra:ZbyWu3aj$rD(394Uy=8
o2/xZt%j3(uxP[stw6k>D$+G/09$oW9SV7uU2,_3uhi/23_jXCsxo'_-wr%AH$Rz(36
eO8%-W6b02<8<[:\0U$+ZK:=md/%TOcIX4y=+h:rahZ=yW+3a)P7$;-! 2\9qpy
38H(7GF+*7c5P#y%k.2d2zF:=2'7erw+*7H;J#y%k.2hm0s R-ud%3sMudu[/<9'X8al
)Cu)9[(jB53:=2'pBv4:%8\ BG90Bd787\) /%)57\) /%))7CV[cp7 D-/Um02,.3(3ev2,.;(3e*+$u*u-/b+$u*i-[by$u/;!J_*5!3wIc0D\8G)-:b:$u\u-[bH57x 3)1-*[
4#oW_\5Skv<9[(Jb53:%8\ bg90bD787\) /%S07%YobDAw\*WF\PU.%'!96
:7w-/;!j_j[\TK:d$hy=+4:d$)y=+jP9cI5_JxP9cI)_3x)9cGV4:[-'BhL
Txs<m43[0Qih/x48BQPh[%2,#3((eh0
'4%YobXzT%-hm9[(Jx;+m9[(Jx3j#9P7 d-/uM0GH##Y%K=M'7cv[CipV9/#[0_0
'4-4:=2'5$;W+*7:7I]W+*7:sx;W+*7:5hRW6K>;\)##0-Dl<YZS!-4\L
)C9r3daW\*wOw_\.st9290ad\C2 c>D>.#=6%0g[mKT:m4'.st929p7 D[92c.Zl
Td#tJ=o66t [90ad\C2 c.Z$9G*Uw7'.m\F:R- /6t :R- /6t [98Dx6CFrJdo\)8
o!o4F.%'!99p7 D/2;022/sh9!X7gj8$):R- /6S5r*xD\%/2;022v4:['o$gW#8
_Ow_\G\*s0=32/sh9!X7gW##k%FM7j%/V+-xL<yzs0=xL<yzs0=32hm0s!-4\.\$oY
38u[/K# Xx>E90w+*7:SX;w+*7J0X#k%FM7j%//0o$2/sh9!X7gj8$):\>aW[
a#0-DU[/k# xZ
Fh<# 9X1)pJ# 9X%+(7d#tJdaW\*wOw_\.%'!99-a[1$o:\6( 7CV[c0uj,/*<XIgxR:q
7W Y$9g*uW7'.M\f:\>Aw7\) 'Vh$9g*uW7'.M\W+*7j0x#Y%K.0
o4Tfqxip//sUqUuG/SH)u577[[
4#3IX Hd:$u]Dd8-#Y%K=M'7\) 'Vt$Yc[T5mI.M\W+*7j0$#Y%K=M'[
a#0-D'3+Z* 'Dj06Z/a*m;J4gQ
7W S$,9;<C.zX79/%54f$#<2c2u23+DKqM[280s3>:Xp[S[!76
:7w-/2F\0>Jb/UPC0AD0k$ W>0
'8JW!=%G3+DK:=2'P=u,:\0U$.PK[Y2U$UqhHU%23_-xc:V2>9qp:O6*77k/-[XUHO'((6
e357\) / t;7\) / t;79K<9$#/-')<9c*9!;U:rajZbV4:O0*77k5-[XO[_3W<Wg3yx8
o;[x787\) /U:S79k<9$#/-')<9C*9!;u:RAJzBv4:o0*77K5-[xo[_3w<wG3YX8
o;uxZt%j3(uxZt%j3(uxP/9#T8B33t9#m-2b)57%(Ce%s07Kk-[xo:_3wUkAH$9CD;)10
'4-p(9>/80s1(+Xp/9# 9x%t;74#q=.357X -/BjPx#=+)1-PIJW+j8za0'K-[X46_Jxc/10
o,*((E1tP7*[!=g(:9qpy
38Jpe#/[=2'#=1w6B0280SuE'xFh6\V;'x48_jXC/123#Q+h/*:$#:#+N23/_3wI]A:zBj+Y
8IiYX++W/xi 4\D9y0*7[
4#e9mh_7k+490AD\c2 C.zX74#q==zVb#M+)1-5xJWF=a:Zxu+:=_78O<5<) 0
oU*((E%:P7%t-/B:(x#tTW[!T8Z(36
e7(7kp4-XOPA#;!j_;>./v+-XfH6\$+%%2,#q+H'1:$,\((E1tP7\[!=g(:9qpy
8CiYX+u(/xL6_jX($126DC z*6uY=8
o!2xo7a#9(>323+dkQm[/$)Cs+5[ 57x -/bJpX#=+)1-pijw+J8ZA0'k-[x46_jXC/10
o,*((E1tP7*[!=g(:9qpy
38JpH#93>xo7a0w7wd78+#m+)1-5Xjwf=A:zXU+:=_78o<5<) 2,.Q+h'1:$,*((e1Tp[
atTW[!T8Z(36
e75xRWu/N2>x_f:38GH#9Wi=a:ZbJ+:r[*P!Jj(9[\H#2);bah$U*((E%:P7%t-/B:(x8
_2J8ZA0'k-[z
FhBjJ:\0u$+zk:=2'5i]wU/n2'4/ 0yU2,#Q+h'1:$,\((e1Tp7\[!=G(:9QP:D$*p!-+(6
:l6_Jx($126dc Z*6Uy=8
o!'1y$+zk:\0u$#<2Cs%2>=_w7wdZW8;wI=A:zBj+:R[*p!jJ(9[\h#2);BAH$u*((e%:p[
a=2)1-PIJW2j8za0'K-[Z
F>#jw007g[mKT:\0u$+zk:\0u$#KV<9C*p!-wf)1-p>#!O)12\9Q+Y
3[H97t! c73\0#y<BxP/9#y<BxZ>mzwI)1-57%((e1V$Rd((94uYX8
Xr=$3W%8
.ends iob_ibuf
