** End of subcircuit definition.
************************************
** Library name: rnr_spice_sanjay
** Cell name: iob_obc_lvlsh_p_b
** View name: schematic
************************************
.subckt iob_obc_lvlsh_p_b in loc_gnd loc_vcco loc_vdd out plvlsel_vccaux
+plvlsel_vcco plvlselb_vcco por_b_vcco
.prot FREELIB
%'X\V-wWFM>Ga#DW%)%+Z=:Q
%[XzT%[WFM>Ga#DW%)u+Z<:Q
%:XzT%[S!=723MgSZ=P2[_3IH'_0
[x##+-XlwS/d+%XAyIRxwjZ
aS7:;[4d78%#=0kd!8y#/-ibH [
49+UX78-##+9id[62 o9id[62 o9[Ow9#M-[BY$,q+H/*28)qp(94 y33WRbahL
)KT [ 2WRSw!=3280SPC2xLWs/y%k.26\tk mE)S7x(Mej23_jXCsxZ'_Ywr%A577$k-[xZAst -'z
F>.SP#9_ xg# 9X=gh#Swfm>g<sGV:R.a.+G/09$oW9SV7uU2,_-X32xLYX+uE9[FYB#!O)\H$Rz(36
eO6%33:jP/m7c [9[(J=;I:r.A.+g/09$Ow9sv7Uu2,_-x3UXlyx+Ue9[fy$#!o)\h$rZ(36
eO6%3l:=2'g7c :=2'7jyWFM>G<Sgv:]md/%TOmUX4yb+pm9i*P!-l:=e*97$;-! 2\9qpy
3Mij=5w+*7;$DdF.c8Zj7%V%c-a[m#=0kdP[stw2o.ujm43M9C*5!3H:RA:zBYw+3AJ$Rd(*[xm/_3q
7O$'7x#vRxXzT%[S!=723MgS6K>d$,T/q\>Aw7*90b7d'j;Wi)u-97%((E%v$#4()94 y33WRbah$#2/0=ajL
)KT [/280SPC2xZt%[wfm>g<sGV:R.a.+G/09$oW9SV7uU2,_;X)9I*p!-L:=E**7$;-! 2\9QP:=GaW#QuY
3Mije# 9X=gh#Sw2R-L/0%s6k>D$,t/Q\>aW7%V%c-a[m#TUm0'W);3:DAH$,Q+h'h2\yQ+:00*p[
492x t$#<23UH2 Y0\:r.A.+g/09id[69/%MXI>MZ203u)$UqUH[u23_JxcSXz'_5WR%a577$K-[Z
F>.S4:Jp/M6C  9$L<,z)f-dP[stwt%3]$,t/Q\>aW7*90B7D'J;wI) -97%((e%V$Rd((94uYX8
oU]7V$DdF.c8Zj7*=6R0(369/%mxLWs/y%k.23mGs6k>D$.KV<X.FSJ#m-[xLYX+uE94 YX#!<)10
'\*23IXzT%[W2M6GX69/%MXlwS/Y%K.23MgS6K>d$.kv<x.fsj#M-[Bj$,q+H'H2\Yq+:00*P[
492x/280s$qW['$.%YFb2lX69/%MXzT%[WFM>G<Sgv:]md/%TOmUX4yj+U:ra:ZbyW+3aj$rD(*[XM/_3Q
7O$'7b# 9x ))7\) 5XlwS/Y%K.23MgS6K>d$.kv<x.fsj#M-'Bhs7%((E%v$#4()94 y33WRbahL
)K  (xD\%# 9X=23mGsz=p23mGsz=p28\tk mE)S7x(39I*p!vwr%A:$Rz((6
eO8%;WT%3]$.%YFb2l.+g/'0e2 Y0\qW['$,T/qn[ $#kv<x.fsj#M-[BY$,q+H:XMV_JWRba:L
)K  sxD\%##+-xLWs/D+%xLWs/D+%xZ>mz203U)$uQi:RA:zH# 7) +$Rd((94uYX# zk.ZYB8
oU=7Hp7\) 5x787%V%cGZv7%V%cGZv7\90B7D'J;wI)U-*7%((e/28)Qu(94 Y33wrBAHl
)K  'xZt%[w2R-L/0%s6k>;\)# 9X=gh#Swfm>gA#dw+o.ujm43M9C*S!-wf)1-)7\o-'xmv_.P:00*7[
49+x 2 Y0\:W[/$,T/qn[ $,T/qn[ $#kv<x.fsj#M-UBv$,q+H:Xz'_-+:0P*==#!<) 0
'\*3:W[/$4\WFM>G<YDWFM>G<YDW2O.U$Uq3H'Xlyx++w9[fy=JWR%a577$K-[Z
-\#*50Xz
.ends iob_obc_lvlsh_p_b
