** End of subcircuit definition.
************************************
** Library name: rnr_spice_sanjay
** Cell name: iob_obc_ctrl_nc_x1
** View name: schematic
************************************
.subckt iob_obc_ctrl_nc_x1 cnnd ctsb loc_gnd loc_vdd normal_nf op_out term
+term_b
.prot FREELIB
7W%Ys7\) :*2[%Zf:=2')<#O!C[;8Y-Wi=a:Z$J+:r[*P!Jj(9[\H#2);bah$U*(36
:l6_Jx($126dc Z*6Uy=8
o!'js$s\ O9[(jHUw7wd78+#m+)1-5Bjwf=A:zXU+:=_78o<5<) 2,.Q+h'%:l
T%T-/b:(X#Ttw[!t8z(36
eO8x# 9xV)$M*S00723MgSZ=P23MgSZ=P28\TK:da:Z<#=-/B:(7$;-/XM/_JQ
7O[j$#T5u5iG8d# 9xV)$,T/qn[ $,T/qn[ $#kv<9c*7!5WF)1-PI#!o)12\9q+y
3MZ77\) iU280SJ)9ID[62 O9ID[62 O9[oW9#m-/b+$,Q+h/*2\yQ+:00*p[
492UXzw8k$FC[\$#<2PUXlwS/Yo%XlwS/Yo%XI>MZWi) -97%((E1t$#4(c94 y33WRbahL
)KT39[(j<;w0]dD\%# 9Xjy$,t/Q\p $.KV<9C*57%((e1T$Rd((94uYX8
oU]%280SH)9[(ji5wfm>g<ydwfm>g<ydw2o.u$uQu:RA:zXUwr%A:$Rz((6
e75I;W%=[ $#<2>IX'T8kW *6O.-# 9x*Y$4Tfqx0/.\$Oc[X46_JxP9czyx+4y
e4Z68t2Y
.ends iob_obc_ctrl_nc_x1
