** End of subcircuit definition.
************************************
** Library name: rnr_spice_sanjay
** Cell name: iob_outbuf_cz_sim_orig
** View name: schematic
************************************
.subckt iob_outbuf_cz_sim_orig cnnd<13> cnnd<12> cnnd<11> cnnd<10> cnnd<9>
+cnnd<8> cnnd<7> cnnd<6> cnnd<5> cnnd<4> cnnd<3> cnnd<2> cnnd<1>
+cnnd<0> cnpd<19> cnpd<18> cnpd<17> cnpd<16> cnpd<15> cnpd<14>
+cnpd<13> cnpd<12> cnpd<11> cnpd<10> cnpd<9> cnpd<8> cnpd<7>
+cnpd<6> cnpd<5> cnpd<4> cnpd<3> cnpd<2> cnpd<1> cnpd<0> dis_n_a
+dis_n_b dis_n_c dis_n_d dis_n_e dis_n_y dis_p_a dis_p_b dis_p_c
+dis_p_d dis_p_e ff_b gtl0 gtl1 gtl2 loc_gnd_ctrl loc_gnd_drv
+loc_gnd_lev loc_gnd_pred loc_vccaux loc_vcco loc_vdd_ctrl
+loc_vdd_lev nslew0 nslew1 nslew2 nslew3 nslew4 nslew5 pad
+pdelsel_vccaux pdelsel_vcco pdelselb_vccaux pdelselb_vcco
+plvlsel_vccaux plvlselb_vcco por_b_vccaux por_b_vcco pslew0 pslew1
+pslew2 pslew3 pslew4 pslew5 pslew_lowvcc term term_b ts_b tsb_s<0>
.prot FREELIB
7W/E57D#<C[Ge7%KaW[G86PW;KidgY/ 0Ymz.28
o!:fH$#<2p2 239h#+c[gt7'/fm= .#t5U=d(l
)Ci#uxZt%rLp9Iud4\s+c2u$8G=05pg8m'9+c20
'4VlP9[(J<y+:r0>H#/tq*X3[,T$oC[d:\*S96
e7)>uW+*7+*$#=<f8z../)<96A3M[;q=.3>./)y
38s;X# 9Xv+07%kAw[g86dw;kIDGy/ 0yMZ.y8
o!:hs$#<2piU239h#+c$gv7'/fm= .#t5U]d l
)CiE(xZt%rJ>9Iud4\s+c>2:s%V'%dZW8K Qkz
FhHY3:=2'0<-wfB;786*s%96a3m[;Q=.3>.//Y
38s*># 9Xv+;7%kAw[g860w;kIDGy/ 0yMZ.-8
o!:hJ$#<2p21239h#+c$gx7'/fm= .#t5U]d/l
)CiE2xZt%rJ#9Iud4\s2c3u$8G=05pg8m'92c30
'4;hc9[(J<Rl:r0>H#/ q5X3[,T$oC[d:\\S'6
e7shyW+*7+0h#=<f8z../$:Y>lw1DS+M6O66[Q
7W/E;7\) I )$M*t!C3U$8g=05PG3M$22C3UL
)C43$xZt%ri39.i84/::y>LW1dsfm4'86pq
7W/E*7\) I/j$M*t!Co2:S%v'%Dlwrstq<Z
Fh<ji:=2'0=-w0][7.0#5%R.;v6%VrX[gt[
4#P/V280s4>SXd6#cS9bX3[,T$oCid\%\S96
e70xJW+*7+0=#v2]8GT9#5%r.;V6%vRx$GT[
4#>(*280s4m$Xd6.cS996A3M[;qr.MJ./)y
38+pJ# 9XvH)7tT+wd $8G=05pg3m$2+cp0
'4V,)9[(J<34:M$IH6DW;KidgY/=007I.Y8
o!i1J$#<2p[j2W.\#Qkx3[,t$OcID\%\s%6
e7)ERW+*7+7I#v2]8G[7'/FM= .,T! ]DAL
)C4([xZt%rPE9.i84/F:y>LW1dsfm4'860q
7W/E)7\) I E$M*t!C32:S%v'%Dlwrstq-Z
FhJU4:=2'0Bjw0][7.1#5%R.;v6%VrX[gG[
4#>:V280s4c[Xd6.cS'96A3M[;qr.MJ./$y
38);XMLv9[(j<vH_/)2W.\#Q3rV%7'/fm= .,t! =dFl
)C3#/rT%7\) i/y#=1w0][7.)MJv96a3m[;QR.mj#/oY
38);XMHv9[(j<vH_')2W.\#Q3ry%7'/fm= .,t! =dFl
)C3#/r+%7\) i/y#J1w0][7.)M4v96a3m[;QR.mj#/oY
38);XMiv9[(j<vH_:)2W.\#Q3rs%7'/fm= .,t! =dFl
)C3#/r)%7\) i/y#<1w0][7.)M3v96a3m[;QR.mj#/oY
38);XMuv9[(j<vH_2)2W.\#Q3rJ%7'/fm= .,t! =dFl
)C3#/rH%7\) i/y#i1w0][7.)MPv96a3m[;QR.mj#/oY
38);XM+v9[(j<vH_s)2W.\#Q3r:%7'/fm= .,t! =dFl
)C3E(rHSP# 9Xvs;wje:m$ih6413u)2:s%V'%dLWRSTQ3z
FhJY,_[%q$#<2p:fc7P#V2]8g'w3uv96a3m[;QR.mj./oY
38)*eMP3+xZt%ri#H%q$m*T!cEc7=1w;kIDGy/=007i.)8
o!uhe#=je:=2'0H]1M+xD6.Cs7H :%7'/fm= .,t! ]dFl
)C3E(re%7\) i/e#H1w0]$7.)M,v96a3m[;QR.mj./oY
38)*eMLv9[(j<v,_i)2W.*#Q3rV%7'/fm= .,t! ]dFl
)C3E(rT%7\) i/e#$1w0]$7.)MJv96a3m[;QR.mj./oY
38)*eMHv9[(j<v,_$)2W.*#Q3ry%7'/fm= .,t! ]dFl
)C3E(r+%7\) i/e#>1w0]$7.)M4v96a3m[;QR.mj./oY
38)*eMiv9[(j<v,_()2W.*#Q3rs%7'/fm= .,t! ]dFl
)C3E(r)%7\) i/e#=je:m$ih641M+x3[,t$OcID\%*s76
e7s>]1c+XzT%RI#h h%7Tt2WDf#b1W;KidgY/=007I.)8
o!uhe#=1w+*7+)eMPC+xD6.Cs7H q$8G=05pg3m$22cE0
'4;l#h1Q$#<2P:FC7j1W0]$7.)m+V96A3M[;qr.MJ./Oy
38+7=# 9X/T;7tT2wd(/6d)f96a3m[;Q%2LWRSTQ*00
'4Rp)9[(Jhy+:M$zH6<Kq%2l$8g=05PGV0%vRx[GT98
o!i :$#<2p//2W.*#Q-0gv0%w;kIDGy/;9R.mj./F<6
e70=RW+*7S*b#v2=8GT6D)F96A3M[;q%2lwrs q*Z
Fh<j,:=2')>;w0]$7.0/;9Rx3[,t$Ocp(3m$22c20
'4Rp>9[(Jhyj:M$zH6DSo*i2:S%v'%D T,T! =D L
)C4(sxZt%vLE9.i64/;Q%2L$8G=05pgv0%VrX$gv[
4#P[u280sIe(Xd6#cS%CP(37'/FM= .Y<=007z.S8
o!i1T$#<2>sj2W.*#Qkd t,#5%R.;v6d)fm4'66Gq
7WVh57\) :F:$M* !C3GV0%W;KidgY/;9r.MJ#/fy
38+p$# 9X/e57tT2wd/.y<=:y>LW1dsO*ID\%*s[6
e7sE-W+*7S;j#v2=8Gg6D)F96A3M[;q%2lwrs q5Z
FhHvH:=2')evw0]$7.1/;9Rx3[,t$Ocp(3m$22c=0
'4Rjm9[(Jh;,:M$I.0ZSo*i2:S%v'%DI:0Dtq*00
'4Rjc9[(JhVI:M$I.0ZW;KidgY/t;*PI.0ZQ
7WVt77\) :*Y$M*tq<X3[,T$oC$3TY*S86
e70$yW+*7S0j#v2=D(/7'/FM= ..')o=D(/[
4#P2F280sI>2Xd6#/)<CP(37'/FM= ..')o=D(/[
4#P$1280sIP2Xd6./f<CP(37'/FM= ..')o]D//[
4#P2*280sIP(Xd6./f<96A3M[;q]6(V./f<6
e70$5W+*7S0>#v2=D#$8g=05PG68<;+Co0
'4Rh>9[(JhVp:M$z.0#5%r.;V6*59%[GT[
4#P2V280sI>UXd6#/)q%2l$8g=05PG68<;+C20
'4Rhc9[(JhuU:M$I.0#5%r.;V6*59%$GT[
4#P2u280sIw[Xd6./)q%2l$8g=05PG68<;2C20
'4R4#9[(JhJp:M$z.Y#5%r.;V6*59%[GV[
4#PIH280sIm:Xd6#/;q%2l$8g=05PG68<;+CP0
'4Rh(9[(Jh;3:M$I.Y/;9rX3[,T$oC$3TY*So6
e70$3W+*7SPb#v2]D $8g=05PG68<;2CP0
'4R4)9[(JhJ+:M$z.S#5%r.;V6*59%[G[[
4#PI*280sIm'Xd6#//q%2l$8g=05PG68<;+C>0
'4R4>9[(JhJ3:M$I.S#5%r.;V6*59%$G[[
4#PIV280sIm[Xd6.//q%2l$8g=05PG68<;2C>0
'4R439[(JhJ4:M$z.-#5%r.;V6*59%[GX[
4#PI1280sIm/Xd6#/fq%2l$8g=05PG68<;+C30
'4R4m9[(JhJh:M$I.-#5%r.;V6*59%$GX[
4#PI%280sIc(Xd6./fq%2l$8g=05PG68<;2C30
'4RIe9[(JhJj:M$z.1#5%r.;V6*59%[Gg[
4#P:F280sIcSXd6#/$q%2l$8g=05PG68<;+C=0
'4RI)9[(JhJl:M$I.1#5%r.;V6*59%$Gg[
4#P:*280sIc$Xd6./$q%2l$8g=05PG68<;2C=0
'4;pPhHQ$#<2>:HCPp#v2=Df#>1W;KidgY/t;*Pz.)8
o!u +#i1w+*7s)>MPv9.i8641W+x3[,t$Oc$3ty\s76
e7s=R1)+XzT%VIeh%Q$M* q3RY%7'/FM= ..')o=DfL
)C33ir+%7\) :/V#J1w0][g'wre:y>LW1ds2y2 864q
7Wuh0WVE:=2')hy1>+Xd6#/O_:)2:S%v'%DI:0D q3Z
FhJ34_u)280Si>sr+%7tT+cEcSP#5%R.;v6*59%[g'[
4#m[VC5p# 9x/S*W5E:M$z.)mUV96A3M[;q]6(V#/Oy
38)7<MPv9[(jHvL_$)2W.\s7H q$8G=05pg68<;+cE0
'4;pPh1Q$#<2>:HC*p#v2=Df#x1W;KidgY/t;*Pz.)8
o!:/J#=;e:=2')<j1(+xD6./o_[Uq$8G=05pg68<;2cE0
'4VIch j%7\) :V:#=1W0]$G'W3UV96A3M[;q]6(V./Oy
38s)BMP3+xZt%v4(H%q$m*TQ3rH7P#5%R.;v6*59%$g'[
4#>:%C7x1W+*7S0xm3V9.I66413/)2:S%v'%DI:0Dtq3Z
FhHvu_()280Sip/rs%7tT2cEc;P#5%R.;v6*59%$g'[
4#>:%C*p# 9x/+PWRE:M$I.)mlV96A3M[;q]6(V./Oy
38s)BMJv9[(jHr+_2)2W.*s7H*q$8G=05pg68<;2cE0
'4VIchJQ$#<2>I1C(p#v2]Df#$1W;KidgY/t;*PI.)8
o!:/J#<1w+*7s0XMLv9.i6641p+x3[,t$Oc$3ty*s76
e7)h-1>+XzT%V4(hFQ$M*tq3RS%7'/FM= ..')o]DfL
)Ci>'r)%7\) :v:#=je:m$i.)M3v96a3m[;Q]6(v./oY
38s)BMuv9[(jHr+_[ q$m*TQ3rJ%7'/fm= ..')O]dFl
)Ci>'rH%7\) :v:#=-e:m$i.)MPv96a3m[;Q]6(v./oY
38s)BM+v9[(jHr+_[Uq$m*TQ3r:%7'/fm= ..')O]dFl
)C3>$rV%7\) i*T#X1wfB;786\s7Hhq$8G=05pg8m'9+3z
FhJvJ_$)280S4W$rH%7%kAw[g8641W+x3[,t$Oc[D:\\oY
38))iMHv9[(j<UJ_')239h#+c[g'w5e:y>LW1ds+m6o8)8
o!u/T#<1w+*7+(iM3v9Iud4\s+cEc0P#5%R.;v6\V;o[Fl
)C3>$rs%7\) i*T#H1wfB;786\s7H/q$8G=05pg8m'9+3z
FhJvJ_u)280S4W$r+%7%kAw[g8641M+x3[,t$Oc[D:\\oY
38))iMuv9[(j<UJ_2)239h#+c[g'w-e:y>LW1ds+m6o8)8
o!u/T#=1w+*7+(iMJv9Iud4\s+cEc7P#5%R.;v6\V;o[Fl
)C3>$r:%7\) i*T#>1wfB;786\s7H1q$8G=05pg8m'9+3z
FhHv3_[Uq$#<2ps cpP#=<F8Z../o_[Uq$8G=05pg8m'923z
FhHv3_[%q$#<2ps c7P#=<F8Z../o_[%q$8G=05pg8m'923z
FhHv3_[ q$#<2ps c5P#=<F8Z../o_[ q$8G=05pg8m'923z
FhHv3_[1q$#<2ps cSP#=<F8Z../o_[1q$8G=05pg8m'923z
FhHv3_()280S4E[rs%7%kAw[g6641#+x3[,t$Oc[D:\*oY
38s)JMLv9[(j<YP_i)239h#+c$g'wYe:y>LW1ds+m6o6)8
o!:/)#i1w+*7+*=MHv9Iud4\s2cEc(P#5%R.;v6\V;o$Fl
)Ci>ury%7\) ihH#i1wfB;786*s7Hjq$8G=05pg8m'923z
FhHv3_i)280S4E[rV%7%kAw[g6641p+x3[,t$Oc[D:\*oY
38s)JMiv9[(j<YP_()239h#+c$g'wve:y>LW1ds+m6o6)8
o!:/)#J1w+*7+*=MP(+xL//C Q]dF#J1w;kIDGy/ 0yMi'[
4#>:uC5p# 9xVv7W3pV9iUD4\S2CeC5p#5%r.;V6\v;O$fL
)Ci>urH%7\) ihH#=-e:R0>h#/TQ3rH%7'/fm= .#t5U]E0
'4VImh1Q$#<2PS C7j1WFb;786*S7h1Q$8g=05PG8M'923Z
Fhm0/Q%6Pp7\) 21J$#<2M2j2W.\s'9.i86[sO*I2W.\s[9.i860sO*I2W.\s%6
:d6#//q%2l$M* q%Xd6#/;q%2l$M* q*Xd6#/)q%2l$M* q*02w.\S9bD T,8
_0][g'wYe:m$Z.)MJv9.i8641)+xD6#/o_i)2W.\s7H/q$m* Q3r)%7tT+cEc5P8
_0][g'w3e:m$Z.)M+v9.i86pw0]$gG7tT2c=gv0%w0]$gx7tT2c3gv0%w0]$gx98
_0]$gx9/;9RxD6.//:m$i.s/;9RxD6./;:m$i.y/;9RxD6./):m$i.0/;9RxD6./)<6
:d6./)<CP(37Tt2CeC7j1W0]$G'W3UV9.I66413[)2w.*S7h :%7Tt2CeC;p8
_0]$g'wYe:m$i.)MJv9.i6641)+xD6./o_i)2W.*s7H/q$m*TQ3r)%7tT2cEc5P8
_0]$g'w3e:m$i.)M+v9.i66pw25p2hm0s0->gv89s%_du[/<9'X8al
)CV[kdi:0d+:=2')XUw+*7sp<# 9X/:p7\) :1H$#<2>'h280SiM/xZt%v3C9[(jH;iY
8[(jHv3:=2')H3w+*7sp># 9X/:97\) :1)$#<2>/%280SiC$xZt%vu#9[(jH;PY
8[(jH;3:=0Ltu;wzXI:$oS=39.i84/$:m$Zh60w0][7.s#V2=8gv7tT+wd;.y<=Y
8.i84/FQ%2L$m* !c>gv0%w0][7.y/;9RxD6#Cs9cp(37tT+wd($m*T!c=2W.*#Q-z
$W.*#QkxD6.CsO9.i64/$Q%2L$m*T!c3gv0%w0]$7.s/;9RxD6.CsOcp(37*kf*CHl
T*kf*CJ$#z=9D1289%)I[xZt%5P(9[(jHri:=2')HY1(+xZt%viEH q$#<2>:hc5P8
_+*7s)>M3v9[(jHvL_:)280Si>sr+%7\) :/V#$1w+*7s)>MJv9[(jHvL_s)0
o#<2>I1CPp# 9x/+PW3E:=2')<J1c+XzT%V4(huQ$#<2>I1C)p# 9x/+PWREy
8[(jHr+_2)280Sip/rT%7\) :v:#>1w+*7s0XM,v9[(jHr+_[1q$#<2>i1c7=1q
$=2')<J13')280sIP/Rhsp#v2]8G'W33V9.I64/O_[%Q$M*t!CeC7=1W0]$7.)mp(+Z
$W.*#Q3re%7tT2wdF#>1w0]$7.)MJv9.i64/o_2)2W.*#Q3r+%7tT2wdF#H1q
$M$IH641m+Xd6.cS7h%Q$M*t!CeC7p#v2]8G'WJE:M$zH641e+Xd6#cS7h*QL
TtT+wdF#$1w0][7.)M4v9.i84/o_:)2W.\#Q3r)%7tT+wdF#B1w0][7.)MPv6
:d6#cS7h1Q$#<2>IH2w.\#q<Xd6#cS9bXd6#cS9bD T,# 9x/S97\) :V)$#<2>IF0
o#<2>IJ2w.*#q-0GV0%W0]$7.-ZW+*7S($#v2]8Ge7\) :*j$#<2>$ 2w.*#q*Z
$W.*#Q*d t,#T<R24S7\kf*CJ$.z=9D1280Si>:xZt%v3#9.i64/)<9.i64/)<cp(3[
a 9x/t(722F'Xz/,<M>9[U30X4:]0lTUVW2bi(,<#t<r24.,TM6K>0
o4TfqM3A..')oC>xL
)CV[kd t,jw+*7s;J# 9X/ep7\) :he$#<2>s*280Si#:xZt%v,C9[(jHYH:=2')>Yq
$M$zH6[W0][7.-#v2=8G[7Tt+WD $M*t!C=2w.*#q-Xd6.cS%9.I64/;y
8ID[62 Oc>':,# 9X/V)7\) i1y$m* !c2u$m*T!c3u$#<2>s1280S4(:xZt%vLM6
:zT%Vlc9.I64/):M$zH6<W+*7S(E#v2]8GT9#to*iUT,/Y%K=M'7*;9r0(3-/Y%K.0
o.D)Fb2l.+g/09$ T,Z)F-Dp[S[!798dX6Tf%CP(36g>y
38Dxs/=6R0>p7\) i%:$#<2p[h280S432xZt%rP>9[(j<3u:=2'0B3w+*7+7e# 9XvH([
a 9xVh07%KaW[G86[WFb;786\S[9iUD4\S+C>239H#+C[GV7%KaW[G86<WFb;786*S'6
:l//c q]D/$,Z*!=DI.S#=<f8z../;:=2'9xVW+*7+s<# 9xVj*7\) I/SL
T\) i/y#X1w+*7+)$MPv9[(j<vH_')280S4>2r)%7\) i/y#H1w+*7+)$M4v6
:zT%RI)hJQ$#<2P:JC(p# 9xVS9WyE:r0>H#/tq3Rhsp#=<f8z../O_[%QL
T%kAw[g66413[)239h#+c$g'w3+v9Iud4\s2cEc;P#=<F8Z../o_s)239h#+c$g'wUeY
8Iud4\s2cEc9P#=<F8Z../o_i)239h#+c$g'wve:R0>h#/TQ3r)%7%kAw[g6641C+z
$39h#+c$g'w3e:R0>h#/TQ3r:%7%kAw[g8641E+xL//C Q=dF#i1wfB;786\s7Hjql
T%kAw[g8641p+xL//C Q=dF#H1wfB;786\s7HUq$,z*!=dZ.)Muv9Iud4\s+cEc7P8
_fB;786\s7H1q$,z*!=dZ.2# 9Xvs77%kAw[g660k:R0>h#/ Q*0280S43uxZt%riE6
:Iw8/fq\>Agr4W2M6GX69/%MXzT%RIc9iUD4\S2C2280s4m$XzT%R439iUD4\S2C2UL
T\) i/e#X1w+*7+)eMPv9[(j<v,_')280S4>(r)%7\) i/e#H1w+*7+)eM4v6
:zT%RI#hJQ$#<2P:FC(p# 9xVS;WyE:=2'0h]1#+XzT%RI#h :%7\) I/E#=3Ey
8[(j<v,_[%q$#<2p:fc7J1w2R-L/0%s6k>;\)#Tf\Iut,0s6k>Dl
TCV[c./[6%yfB;g[N8
o!m3a.sS5f/xZt%r4E9[(j<r,:=2'0ivw+*7+0<# 9Xvy77\) ivs$#<2p21280S4p'z
$80S4pux h9/ Q5x h9/ Q-x h9/ Qkx h9/ Q%x h9/ Q*x h9/TQ5x h9/TQ-z
$v4zs2c>2v4zs2cp2 D/F:X0gx7\) 21y$#<2pi*280S4W$r:%7\) i*T#=1q
$=2'0Iu1c+XzT%RjwhuQ$#<2P$*C)p# 9xVt(WRE:=2'0Iu1)+XzT%Rjwh*QL
T\) i*T#>1w+*7+*=M+v9[(j<YP_[)280S4E[rJ%7\) ihH#J1w+*7+*=Miv6
:zT%Rl3hVQ$#<2PS C9p# 9xVv7WuE:=2'0>31e+XzT%Rl3hFQ$#<2PS C7x1Q
$=2'0>313[)280s4e[Rh5p# 9xVv7W33V9>z8Ympm+XA8#D13')2[#\;_[ QL
TG +%rHpP#/+=pc;P#/+=pc*P#/+=pc(P#/+=pc9P#/+=pc0P#/+=pc)P#/+=pcSP8
_%=[ #B1w%=[ #=1w%=[ #X1w%=$ #=]e:k[ivw3Lv9>Z6yMPW+xa8.d132)0
oS\toh +%7g 2%Rh)p#/+]PC7j1W%=$ #=-E:K[IVW3pV9>z6Ymp(+XA8.D1#+Z
$[#*;_s)2[#*;_$)2[#*;_2)2[#*;_i)2[#*;_:)2[#*;_u)2[#*;_')2[#*;_[)0
oS\toh1Q$#<2P$F280s4eIX'T8kW *6O.-#;!bDI.0# 9xVvP7\) IHY$%ZfqbR:%[
a 9xVv(7cv[C./[6g2;rDA+[
4#>//2<9ZW+*7+*I#O!C8z<7X -/BjPx#=+)1-PIJW+j8za0'K-[X46_Jxc/123.q+H/*:L
T*[!=G(:9QPY
\8Pvy// yI23mGs6%pg[%'=:=2'0<Uw(6
-7<Sgvqr-l//#=0KDp[STW+*7+)h#+y
\8Pvy/=6R0>$,t/Q\p .,<y:=2'0BYw(6
-7<Sgvq%i#$,T/q\>Aw7\) I1Y$x8
y!\>aW6*59%xLWs/y%k.280SiW$x:l
+Cy%k.gv89wfm>g<sGV:=2'S$5w(6
-7V89S6b0280sh('XlwS/d+%D :+#+y
\8L<,z*Q\0u$#<2)//23mGsz=pg309w(6
-7[%'=q\0U$#<2)/J23MgSZ=PG[%'=:/Z
Ph+G/'0Eg3+%kA9ID[69/%54F$#<2puv2p[
9#2Y2 .+ZK:=2'9=JWFM>Ga#DS2Y2 $x8
y!\>aGR4sORO23mGs6k>;\)# 9X/V)7jq
6W-A[1$Oq]6(V7%v%C-A[1$O:=2')<VW(6
BM8.'v 6
.ends iob_outbuf_cz_sim_orig
