** End of subcircuit definition.
************************************
** Library name: rnr_iob
** Cell name: iob_obc_drv_a
** View name: schematic
************************************
.subckt iob_obc_drv_a opn opn_del opp opp_del io loc_gnd loc_vcco
.prot FREELIB
7=/2HM#v2=XlwS/d+%XlwS/d+%Xz>MZ203u)$Uqp>EVS$,q+H:Xz'_yWR%ah$rZ(39e yx+3>IXf/_Jxw[XfaSD((EuS074d%ba:ZbV4:=gAw#qUy
3MZjX##09.i86d)f9ID[62 O9ID[62 O9[oW9SV7uU2,_3ihi/23_jX>9[FY>#!O) 2\9QP:3p*p!;ip9EuYX+J39E![yQ+hu/+$)2/<)1-5Hrw+N>D8_-q
7O$'P7cv:M$I.Y<=:r.A.+g/09id[69/%MXI>MZ203u)$UqpcEVS$,q+H'H28)qpm94 y=#!<)12'Yq+HU/+$)Z((EJ+074d%%a:ZjV4:3gA/_Jxc:V28Ogv+)%0
'.RW!MXd6.#=0KDp[STWFM>G<Sgv:]md/%TOmUX4y=-xP:Xlyx+Ue9[fy=;WR%ah$rZ((9e yx+3>IXf/_Jx)IV2'Og;-/B))<#OZK0*P!-IP9[![M\(c6
BM8.'v 6
.ends iob_obc_drv_a
