** End of subcircuit definition.
************************************
** Library name: rnr_iob
** Cell name: iob_obc_drv_xp1
** View name: schematic
************************************
.subckt iob_obc_drv_xp1 io loc_vcco opp
.prot FREELIB
7] EP7cv:M$I$,T/q\>Aw7%v%C-A[M#tuM0'w);3:dah5!RI:ra:ZbyWR%ah$rZ((9e yx+3>IXf/_Jx)IV2'Og;-/B))<#OZK0*P!-IP9[![M\(c6
BM8.'v 6
.ends iob_obc_drv_xp1
