** End of subcircuit definition.
************************************
** Library name: rnr_spice_sanjay
** Cell name: iob_obc_lvlsh_n_x
** View name: schematic
************************************
.subckt iob_obc_lvlsh_n_x in init_vccaux_lvlsh_b loc_gnd loc_vccaux loc_vdd
+out
.prot FREELIB
%'X\V-wWFM>Ga#DW%) -0d8
/M9[(j1#=0kd!8y#/-ubV [
g+:W[/$,T/qn[ $Sq4HU_0
'\*23$XzT%]U:jP/m7%v%C-A[1$O:r.A.+g/'0e26\TK Mej07X(39i*P!-l:0P*P7$K-/Z
F>.SP39.mj7C [9[(j>jwfm>g<sG$r3xi>mz203%+$uQuhi*23_jXC:xmv_jwrBA:$#2/0=AJl
)KT [U2 y0\:w[/$#<2W2xLWs/y%k=m'7*90B7D'BrwI) 23_jXCsxmv_jwrBA:l
)KT [v280S$:w[7j69/%54F.,9=<Fd/$,t/Q\>aGR4wfm>g<sG$r3xi>mz203%+$uQPh'xLYX+u>94 YX#!<)10
'\*23'XzT%uh:=2'g7%v%C-A[1$O:r.A.+g/'0e26\TK Mej07X(39i*P!-l:0P*P7$K-/Z
F>.SP>9[(j>jw+*7;$,t/Q\>aGR4wfm>g<sG$r3xi>mz203%+$uQuhi*23_jXC:xmv_jwrBA:$#2/0=AJl
)KT [h280S$:w[280S,C9ID[69/%54F$.KV<X.F5<#m-[xLYX+uE94 YX#!<)10
'\\23/XzT%[W!=XlwS/d+%XlwS/d+%Xz>MZ203%+$Uq3H2J23_Jxc:XMV_JWRba:L
)K  [x\v-Ww!=323mGsz=p23mGsz=p28\tk mEJ07x(Mejy$,Q+h'/2\yQ+:00*p[
49+xF2wrsW+*7;$,T/qn[ $,T/qn[ $#kv<x.f5<#M-[Xlyx+U>94 yx#!<)10
'\\2e9.MJ7c [9id[62 o9id[62 o9[Ow9sv7'V2,_;x#SXlyx+U>94 yx#!<)128Ogv+)%0
'\*3:W[/$4\WFM>G<YDWFM>G<YDW2O.U$UqpH$Xlyx++w9[fyb#!o)\h$rZ(36
eO8j##+-X787%v%CgzV7%v%CgzV7\90bX4y=+j:ra:ZxuWR%a:$rZ((6
BM8.'v 6
.ends iob_obc_lvlsh_n_x
