** End of subcircuit definition.
************************************
** Library name: rnr_spice_sanjay
** Cell name: iob_obc_lvlsh_n_b
** View name: schematic
************************************
.subckt iob_obc_lvlsh_n_b in init_vccaux_lvlsh_b loc_gnd loc_vccaux loc_vdd
+out
.prot FREELIB
%'X\V-wWFM>Ga#DW%)V-*d8
/M9[(j1#=0kd!8y#/-[ \l
sjw!=323mGsz=p2[_3Lh:_0
'\*3:W[/$4\WFM>G<YDWFM>G<YDW2O.U$UqpHUXlyx++w9[fy=JWR%a577$K-[Z
F>#SP:Jp/M7C [9ID[62 O9ID[62 O9[oW9SV7'v2,_3X#ixLYX+u>9[FY=jwr%A577$k-[z
F>#SP(9[(j1##+9ID[62 O9ID[62 O9[oW9SV7'v2,_3X#ixLYX+u>9[FY=jwr%A577$k-[z
F>#S,:m4'$#<2'9ID[62 O9ID[62 O9[oW9SV7'v2,_3wf)1-5H#!O)12\9Q+Y
3MZj>#VrXx78-#=0kd!8y#=0kd!8y# Um0'W)-4:DAHzerwf)1-5H# 7)h2\yQ6394uY=# zk.ZYB8
oU]7H07\) 5x784Ss6k>;\)/=6R0>.-#=0kdP[s[!79ID[69/%54F$.KV<X.F5<#m-[bJ$,Q+h'/2\yQ+:00*p[
492x j$#<2#(XzT%[WFM>G<Sg$R3XlwS/Y%K=M'7*90b7d'bRWi)%-5j#=-/Bj)7\O-'XMV_.p:00*7[
492x S$#<23/u280s$:r.A.+g/'0e23MgS6K>;\)#tuM0'w)-4:daj$,q+H'/28)q4:0P*P7$K-/XzaST -'Z
F>.SP39.mj7C [9[(j=j3:R.a.+G/'0E26\tk mEJ07x(C9I*p!-i:=E*07$;-/xm/_jw+N>D8_-q
7O$'7I# 9xF+$dDf.9id[69/%54f$,T/q\>Agr4W2O.UJM4UP9c*5!-3:ra:ZbVW+3aj$rD(*[XM/_3Q
7O$'7j#[o-,2H#0W+*7E;7%v%C-A[1$O:]md/%TOcIX4yb+Um9i*P!-I:=e*57$;-! 2\9qpy
3Mij=Yw+*7;$4\w+*7e07%V%c-a[1$o:]MD/%toCix4YB+uM9I*p!-i:=E*57$;-! 2\9QPY
3MZS7C [98Z$,t/QN[ $,t/QN[ $#KV<9C*7!jL:RA:zXUw+3Ay$Rd(*[xm/_3q
H0[I:MsQ
.ends iob_obc_lvlsh_n_b
