** End of subcircuit definition.
************************************
** Library name: rnr_iob
** Cell name: iob_pup_vco
** View name: schematic
************************************
.subckt iob_pup_vco fst_cfg_b ghigh_b gts_cfg_b gts_usr_b hswapen io
+loc_vcco por_b_vcco pup sysmon_auxin
.prot FREELIB
7]uv$4TW+*7S*7\) :J23MgS6K>d$.kv<x.fsj#M-2Bj(7%((E%v$#4(c94 y=#!<) 0
'.uh:=2')$# 9x/v$,T/q\>Aw7%v%C-A[M#tuM0'w);3:dahZ>RWF)u-*7$;-[XM/_3Q
7W hs7\) $V2/2Z90=D;\)c :=2'0h#O!C[;8Y-Wi=a:ZbJ+:r[*P!Jj(9[\H#2);bahL
TxT-/bJpX#=2)1-pijw2J8ZA0'k-[z
Fh=3P:=2'*H# 9X*J$#<2WuxZt%r,:38g8m'3:D[*p!-+(9IZYX++W/xZ 4\D9y0*7[
aM2)1-5xJWF]a:Zxu+:]_78O<5<) 0
'43p(9[(J<]WFM>G<Sgv:=2')># 9xJY$#<2)UXIw8/fq\>Aw7cv[C7l<9H23Cu)L
)CLE9[(jiUwzX0g\9's[9G'/6G[zc326R*w+*7T574#Q5.75B#m+-A:zBj+:R[*p!jJ(6
:48-/[!=g(:9qp:d[;yx+U(/X481/[!=g(:9qp:d$;yx+U(/Xl6_Jx($10
oU*$qj8za0'K-[X46-q+H'1:$U*fqj8za0'K-[Z
Fh=3u:=2'0H# 9X*)$)Cs!=-2,#Q+h'1:$,\((e1Tp7\[!=G(:9QP:D$*p!-+(6
:l6_Jx($126dc Z*6Uy=8
o![ s$Dz2Qk_!.-# 9X*+$)Cs!=-2,#Q+h'1:$,\((e1Tp7\[!=G(:9QP:D$*p!-+(6
:l6_Jx($126dc Z*6Uy=8
o![1e$oSkQk_!.-# 9X*T$)Cs!=-2,#Q+h'1:$,\((e1Tp7\[!=G(:9QP:D$*p!-+(6
:l6_Jx($126dc Z*6Uy=8
o![1:$/zm']2Z$#<2E[xFh6C 69CZYX+u(/xL8_jX($128DC z*6uY=#m2)1-5Xjq
$r$*P!Jj(9$\H#2);bahL
)C,#9$m672*!N;gx7\) s 280SL>9E7.1t#C[x481Q+h'1:$,\((e1Tp[
aM+5D\H#2);bah$U\f-/BjPx#M+-D\H#2);bah$U*$-/BjPx#=2)1-PIJQ
$d$;.dc Z*6Uy=#M2-a:ZbJ+:d$/.dc Z*6Uy=8
Xr=$3W%8
.ends iob_pup_vco
