** End of subcircuit definition.
************************************
** Library name: rnr_iob
** Cell name: iob_lvds_lvlshf
** View name: schematic
************************************
.subckt iob_lvds_lvlshf in loc_gnd loc_vcc loc_vdd out por_b
.prot FREELIB
7O$'77\) C1hPI#=0KD!8Y#=0KDp[S#=0KDp[S#tuM0'w)-4:dahP7%((E%S$rD((94Uyx8
oU]7:$#<2E[xiW8/F:R.a.+G/:R.a.+G/:]MD/%toCix4Y=++:RA:zBvwr%A:$Rz((6
eIP7\) CHS$#<2e[XlwS/Y%KXlwS/Y%KXI>MZ203%+$Uqp(E/+$,q+H'/28)qU:0P*==#!<) 0
'.-U:M4'$4\f:=2'.>VWFM>G<SgW2O.UJM4UP9c*7x+IP9i*P!-I:=e*57$;-! 2\9qpy
3$J$#<2E[x787\) ch:$,t/Q\>a$.KV<X.F5<#m-$bHS7%((e%s$Rd((94uYX8
o2'1e$#<2Qs1280SiE9ID[69/%9ID[69/%9$oW9SV7'v2,_UX3uxLYX+u>94 YX#!<)10
'.uW+*7G7xVW+*7S*7%v%C-A[7%v%C-A[7*90b7d'bRWi)/-s>#=-/Bj)7$;-/XM/_JQ
7]J280sl)9[(J>3WFM>G<SgWFM>G<SgW2O.UJM4UP9c*)!-p:ra:ZbVWR%a:$rZ((6
eI07\) :H2H#0W+*7v97%v%C-A[7*90b7d'bRWi)/-5=#=-/Bj)7$;-/XM/_JQ
7=1280sIe98zX7%v%CgzV7%v%CgzV7\90b7d'bRWi) +Z$3WF)1-5h#!o)12\9q+y
38)p7C :w[/$,t/Q\p $,t/QN[ $)Cs!=-F')#m2)/-*Xjwf]A:zXU+:]_78o<5<) 0
oU\(cE/:P7% -/B:(x# TW[!T8Z(36
ezs7T! 9[(J>3WFM>Ga#DWFM>Ga#DW+O.UJM4UP9c*P!;l:ra:Zb5WR%a:$rZ((6
eO8%JW+*7v77c :r.A.O\;:r.A.O\;:=md/%TOcIX4yb+h#9i*P!-I:=e*07$;-/XM/_JQ
7O['77\) S 2H##=0KD!8Y#=0KD!8Y# uM0'w)-4:dajZI#=-/Bj)7$;-/XM/_JQ
7=*2wrsW+*7G7xVWFM>Ga#DWFM>Ga#DW+O.UJM4UP9c*7j+4:ra:ZbVWR%a:$rZ((6
ez)7T! 9[(JhyW+*7GP=Jj:r.A.O\;:=md/%TOcIX4yj+439i*P!-I:0P*P7$K-/Z
F8=YL:=2'*=##+9ID[62 O9ID[62 O9[oW9SV7'v2,_jXp9I*p!-i:=E*;7$;-/xm/_jq
7=J280sS3//2H##=0KD!8Y#=0KD!8Y# uM0'w)-4:davZh3WF)1-5h#!o)12\9q+y
3[+$#<2>sxZt%YP:R.a.o\;:R.a.o\;:=MD/%toCix4YX+4:RA:zBvwr%A:$Rz((6
BM8.'v 6
.ends iob_lvds_lvlshf
