** End of subcircuit definition.
************************************
** Library name: rnr_spice_sanjay
** Cell name: iob_obc_pred_p_e
** View name: schematic
************************************
.subckt iob_obc_pred_p_e loc_gnd loc_vccaux loc_vcco opp opp_del oppi
+oppi_del pslew0 pslew1 pslew2 pslew3 pslew4 pslew5 pslew_lowvcc
.prot FREELIB
7O$'P7Tt2CP(37Tt2WXlwS/Y%K.23MgS6K>d$.kv<x.fsj#M-'BS07%((E%v$#4()94 y33WRbahL
)*P([xD6.#V2]823mGs6k>D$,t/Q\>aW7*90B7D'J;wI)%-)<#=-/bJ*7\o-2xmv_.P:00*7[
49+x j$#<2c'H269%)iCid,+g/:r.A.O\;:r.A.O\;:=md/%TOcIX4y=+j:ra:ZbVW+3aj$rD(*[XM/_3Q
7O['7<# 9x%S)7%v%CgzV7\) 'JS$,T/qn[ $#kv<x.f5<#M-[Bh)7%((EV2\Yq+:00*P[
49+x%h$#<23IJ23MgSZ=P23MgSZ=P23MgSZ=P28\TK Mej07X(3E S$,q+HIXMV_JWRba:L
)K  [h280SuE/xi/,<m(9[(jBUH:R.a.o\;:=MD/%toCix4Y=++:RA:zH#!O)12\9Q+Y
3MZjH#V2]d t,#V2]8gv0%w+*7J5X#=0kd!8y# Um0'W);3:DAJzBrwf)1-)7\o-uxmv_jwrBA:l
)K  'xZt%-u(9$u30x4:R.a.o\;:R.a.o\;:=MD/%toCix4YB+J:RA:zBvwr%A:$Rz((6
ez7>5W+*7j5x#t<r2457%v%CgzV7%v%CgzV7\90b7d'bRWi) -P>#=-/BS*7$;-/XM/_JQ
7O['7E# 9x%t97*KF*c:$,T/qn[ $,T/qn[ $#kv<x.f5<#M-[B:$,q+H:XMV_JWRba:L
)K  '1280SuW'xi/,<m39ID[62 O9ID[62 O9[oW9SV7'v2,_3X39I*p!vwr%A:$Rz((6
ez7IVW+*7j)h#t<r2457%v%CgzV7%v%CgzV7\90b7d'bRWi) -P>#=-/BS*7$;-/XM/_JQ
7O['7I# 9x%Y*7%v%C-A[1$O:r.A.O\;:r.A.O\;:=md/%TOcIX4y=+UP9i*P!-j:0P*P7$K-/Z
F8=Yi:=2'5Bjw2BI(,X# 9X%Vp7%V%cGZv7\90B7D'BrwI) -p7%((e/2\yQ+:00*p[
4 w9[(Jb-+:]0lTU;WFM>Ga#DWFM>Ga#DW+O.UJM4UP9c*7!Jl:ra:ZbVWR%a:$rZ((6
eO8%3W+*7j)h#t<r2407%v%CgzV7%v%CgzV7\90b7d'bRWi)%-(7%((E%S$rD((94Uyx8
oU=7y$#<2C2/23mGsz=p23mGsz=p23mGsz=p28\tk mEJ07x(3e s$,Q+hixmv_jwrBA:l
)K  sxZt%-H(9ID[69/%54F$,t/QN[ $,t/QN[ $#KV<X.F5<#m-[bJ07%((e%T$Rd((94uYX8
o+[*)$#<2C:/269%)I[xZt%-iE9ID[62 O9[oW9SV7'v2,_3X39I*p!vwr%A:$Rz((6
eO8%]W+*7j0$#t<r24P7\) 'Vj$,T/qn[ $#kv<x.f5<#M-[B:$,q+H:XMV_JWRba:L
)K  [ 280Su(:xi/,<mQR.4<sGwfm>gA#dwfm>gA#dw+o.ujm4up9C*7!Uwf)1-5H# 7)%2\yQ6394uY=8
o+'xZt%-u(9ID[69/%54F$#<2C2h23mGsz=p28\tk mEJ07x(3e%+$,Q+h'*2\yQ+:00*p[
49+xu2w.*W0]$7$#<2c:/23MgSZ=P28\TK Me)s7X(cE%+$,q+H:Xz'_;WR%a:$rZ((6
eO8%3I:=2'5<-W2bi(,x#=0KD!8Y#=0KD!8Y# uM0'w)-4:dahZx#=-/BS$rD((94Uyx8
o+2xZt%-i>9$u30x3:R.a.o\;:R.a.o\;:=MD/%toCix4Y=++E9I*p!-i:0p*p7$k-/z
F>#S+:=2'5Hvw2BI(,H#=0kd!8y#=0kd!8y# Um0'W)-4:DAHzXYwf)1-5H# 7)%2\yQ6394uY=8
oU=7+$#<2C'1269%)I:xLWs/D+%xLWs/D+%xZ>mz203%+$uQPh/h23_jXC:xZ'_-wr%A577$k-[z
F8=Y4:=2'5Bjw2BI(,=# 9X%T57%V%cGZv7\90B7D'BrwI) -77%((e/2\yQ+:00*p[
49+x :$M*t:M$IH7\) '1S$,T/qn[ $#kv<x.fsj#M-[Bt$,q+H:Xz'_-WR%a577$K-[Z
F>#SP)9[(jBvL:]0Ltu3wfm>gA#dwfm>gA#dw+o.ujm4up9C*7!3wf)1-)7$;-/xm/_jq
7=u280sU>:XlwS/Y%K=M'7\) 'J:$,T/qn[ $#kv<x.f5<#M-[Bj07%((E%t$rD((94Uyx8
o+[*J$#<2C:/269%)I/xZt%-4)9ID[62 O9[oW9SV7'v2,_3X(9I*p!vwr%A:$Rz((6
eO8%uW+*7j5x#=0KD!8Y# 9x +97%v%CgzV7\90b7d'bRWi) -7h#=-/B+$rD((94Uyx8
oU=7HS7tT2cp(37tT2wd t,# 9X%J*7%V%cGZv7\90B7D'J;wI) -(7%((e/28)Qu:0p*==#!<) 0
Zr\t;M70
.ends iob_obc_pred_p_e
