** End of subcircuit definition.
************************************
** Library name: rnr_spicemodel
** Cell name: iob_diff2cmos
** View name: schematic
************************************
.subckt iob_diff2cmos enable in in_b out out_b
.prot FREELIB
H]=3g\#M2[ahZ<#M2UahZIRWi]%*P!RWi]/*7!5WiCP7 dqUH[X4.9T!;K2*)!JQ
$d[jy=+pc9cz7_Jxe6
>:$#<23'V2<9ZW%)%-)d8
/39$2<9zw%)%-5D8
/C9[2<9zw%) -;i:q
%2XzT%33c9-U/7g(3EV) [
g3:=2'7hJW6b02[_3xwI_0
[I# 9xJE$+ZK:KahZ<;[y
kh280SJ>9-u/7G(3ev) [
gI:=2'7huW6b02[_3xwI_0
[<# 9x*j$+ZK:KahZ<;[y
38J)7\) [UJ$#<2)(xFh6C 69CZYX+L>/xL8_jX($128DC z*6uY=#m2) -9ejq
$r$*P!Jj(9$\H#2);bahL
)Cup9[(ji-w+*7T)74#Qw[P$u\((ehsp7% -/b:(X# tw[!t8z(39CiY=+H#/z
$3.Q+h/*:$.:#+N23/_3q
7W h07\) $/2wrsW7WD78+#M+) -9EJWF=a:Zxu+:=_78O<5<) 2,.q3HU*:$,*((E1tP[
atTW[!T8Z(36
e77># 9xJE$M$2q-XfH6c 69czy=+h#/Xl8_Jx($128dc Z*6Uy=#M2)u-sIJQ
$r$*P!Jj(9$\H#2);bahL
)CP392ZG-%):\p $#<2WsxFh6S#+\x48_jXp/123#Q+h'/:$#:#+N23/_3wI]AHl
T%T-/bJ)X#Ttw[!t8z(36
eO6%;W29[2<YDW6%P26\TK:da46=#=-/B:;7$;-/XM/_JQ
7O$'97\) [uj$##Yo%XpVY#tuM02,_Xtm9i*P!J,:0P*P7$K-/Z
F>.S+:=xZ$+d;:\p $.KV<9C*,.-wf)1-pe#!O)12\9Q+Y
3MijB# :]xPvy#yO%xi>mzwI)Ci77%((e1e$Rd((94uYX8
oU]%280SP>/xi$+d;:\p $.KV<9C*,.vwf)1-pe#!O)12\9Q+Y
3Mi77\) $%2679;O9- v7*90Bx4Yu*3:RA:zX]wr%A:$Rz((6
eO6%uW+*7h)I# :\P $+D;:]md/7X(i]/23_Jx((XMV_JWRba:L
)KT(9$2679;O9- v7*90Bx4Yu*u:RA:zX]wr%A:$Rz((6
eO8%uW6b02<9ZW+*7h5<#Y<bXz>MZ203%+$UqpH/V23_Jxc2XMV_JWRba:L
)K  sxP/9#y<BxZt%3up9-u/7\90B7D'BrwI) -p<#=-/bJ97$;-/xm/_jq
7O[';7\W!=D/$#<23'V2<9ZW+O.UJM4UP9c*,6D#TjXlyx+U)94 yx#!<)10
'\\2c9$2H## 9x j079K<9[Ow9sv7'V2,_XSoW_\$,q+H'J2\Yq+:00*P[
49+'XzT%3UP9[(J=5+:\0U$+ZK:=md/7X(iC0d\8g):ra:Z=uWR%a:$rZ((6
eO8h# 9x )57\) [/:$+ZK:\0U$#kv<9c*,#-WF)1-PE#!o)12\9q+y
3MZ97\) [/T$#<23:*2<9zw6B028\tk:DA48=#=-/b:;7$;-/xm/_jq
7O[)$#<23:1280sp>/Xp/9#Y<bXz>MZWi)cz77%((E1E$rD((94Uyx8
oU=v280SJC9[(j=vJ:\0u$+zk:=MD/7x(I=%23_jX((xmv_jwrBA:l
)\3:=2'7$jw+*7T*79k<9-u/7\90Bx4YX+3>9I*p!j,:0p*p7$k-/z
F>#jw+*7HSB# 9X*V$+zk:\0u$#KV<9C*p!3J:RA:zXUwr%A:$Rz((6
eO8=# 9x*j$#<2wSXp/9#Y<bXz>MZWi)1-7I#=-/B:(7$;-/XM/_JQ
7=H280sp)/XzT%ul:\P $+D;:]md/7X(3EJv$,q+H/F2\Yq+:00*P[
+!+]6dJ[
.ends iob_diff2cmos
