** End of subcircuit definition.
************************************
** Library name: rnr_iob
** Cell name: iob_tg_ldt_pudisable
** View name: schematic
************************************
.subckt iob_tg_ldt_pudisable cbit_ldt_vccaux cbit_ldt_vccaux_b
+ldt_disable_in ldt_disable_out vccaux
.prot FREELIB
7=D'a6*!93723YsSoW0;X,<S0072[-c2qrP'.+g/'0eGX7%; CP7/10=9C8z$+ZKy
8[oW9SV7'v2,_UX(9I*p!-i:oE*77\o-[x4:yQ;tD6 8%#m;BA  u'k+Xz
$,#x(OJCZ,#Swr%A:$Rz((9E Yy:oO=72'9Q;t30Zj7x57%A  u'oO=70
oU'O<)P\,84K+xXfaSD(oje![Y\2:3gA/_D[7n>U8%#K!n3*P7Z#Z\7*P7Z#Zra:L
T\D%m[*7[
4 2%DI\042:rP'.YcK'-i(.M$2:K37J6%; C-A[1$O:\0U$+ZK:=md/%TOcIX4yx+j:ra:Zb5WR%a:$rZ((6
eI.%2S202fJ7%; CP7/10=9C.MJ7gf!xDlV%/Y%K=M'7%; CP7/10=9C8z$+g/'0e0
o.kv<x.f5<#M-$B:$,q+H'/2>)qp:=e*77X5o)P\,8Dt 9c3/_D[iY0IJ[
aM+da  U\M2xXMV_JWRba:$)D(oje 6%#O<)P\'9*2:d6fV_D[iYe 6%8
_IyEuYy:m;30ij74D%%A  )2/O]72'oGk-%_FAszT 907A-Q+:B8!<%Q+:B8!3_jq
$=gAw#qpy
e4Z68t2Y
.ends iob_tg_ldt_pudisable
