** End of subcircuit definition.
************************************
** Library name: rnr_spice_sanjay
** Cell name: iob_obc_lvlsh_p_y
** View name: schematic
************************************
.subckt iob_obc_lvlsh_p_y in loc_gnd loc_vcco loc_vdd out plvlsel_vccaux
+plvlsel_vcco plvlselb_vcco por_b_vcco
.prot FREELIB
7O$)$4\f:W[23MgS6%P23MgS6%P26\TK:daj$,q+H/*28)q3:0P*P7$K-/Z
F>#SP(9[(j1##+9ID[62 O9ID[62 O9[oW9SV7uU2,_3XM$xLYX+i:=E*7X#!O)\H$Rz(36
eO8%;WT%3]$.%YFb2l.+g/'0e2 Y0\qW['$,T/qn[ $#kv<x.fsj#M-[Xlyx+I:0P*P7$K-/Z
F>#Su:=2'G7*=6R0(369/%54F$#<2'c8Zj7%V%cGZv7\90B7D'J;wI) -7<#=-/bs$Rd((94uYX8
oU=7e$m$2:=2'G7%V%cGZv7%V%cGZv7\90B7D'J;wI) 23_jX>94 YX#!<)10
'\\2e9.MJ7c [9id[62 o9id[62 o9[Ow9sv7Uu2,_-x3IXlyx+I:=e*07$;-/XM/_JW+n>d8_-Q
7O['77:;[4X78-#=0KD!8Y#=0KD!8Y# uM0'w);3:dahZjuWF)1-)7\O-[12\Yq6394Uy=8
oU]7H77t! 98Zx7\) [*H$,t/Q\>aW7*90B7D'J;wI)%-0<#=-/bJ*7\o-'xmv_.P:00*77\D%m[*5[
492x v$#<2'98z$#<23Su23MgS6K>d$.kv<x.fsj#M-'B)$,q+H'H2\Yq+:00*P[
492xH2 Y0\qW['$.%YFb2l.+g/09id[69/%MXlwS/Y%K.26\TK Me)s7X((E*+$,q+H'H2\Yq+:00*P[
492x S$#<23$ 280s$:r.A.+g/09id[69/%MXI>MZ203u)$UqUHIV23_JxcSXz'_-WR%a577$K-[XzaST -'Z
F>.SP#9_ xg# 9X=gh#Swfm>g<sGV:R.a.+G/09$oW9SV7uU2,_jXWixLYX+uE94 YX#!<)10
'\*23IXzT%[W2M6GX69/%MXlwS/Y%K.23MgS6K>d$.kv<x.fsj#M-/Bt07%((E%v$rD((94Uyx8
oU]7+$DdF.c8Zj7*=6R0(3-/y%k.2 y0\:R.a.+G/09$oW9SV7uU2,_3wf)1-5>#!O)12\9Q+Y
3Mij=Uw+*7H*J#[O-,23mGs6k>D$,t/Q\>aW7*90B7D'J;wI)%-S7%((e%V$Rd((94uYX8
oU]7s$#<2'c8Zj7*=6R0(3-/y%k.280S$:R.a.+G/09$oW9SV7uU2,_3X3ixLYX+uE94 YX#!<)10
'\*23/Xd\%# 9x=GH#sWFM>G<Sgv:r.A.+g/09$Ow9sv7Uu2,_;xm$V23_JxcSXMV_JWRba:$#2/0=ajL
)KT [U2 y0\:w[/$#<23(v23mGs6k>D$.KV<X.FSJ#m-'b)$,Q+h'h2\yQ+:00*p[
492x Y$#<2'9_ XG/#+xXlwS/Y%K.23MgS6K>d$.kv<x.fsj#M-/Bt07%((E%v$rD((94Uyx8
oU]7e$#<2'c8Zj7*=6R0(369/%mxLWs/y%k.23mGs6k>D$.KV<X.FSJ#m-/bT07%((e%V$Rd((94uYX8
oU]7H57\) [f+$#<2'9ID[69/%mxLWs/y%k.26\tk mE)S7x(CeU23_jXCsxmv_jwrBA:l
)K M98Zx7C :R.a.o\;:R.a.o\;:=MD/7x(3ev23_jX($xZ'_-wr%A577$k-[z
ap7C [9ID[62 O9>*7=:q
H0[I:MsQ
.ends iob_obc_lvlsh_p_y
