** End of subcircuit definition.
************************************
** Library name: rnr_spice_sanjay
** Cell name: iob_obc_lvlsh_p_x1
** View name: schematic
************************************
.subckt iob_obc_lvlsh_p_x1 in loc_gnd loc_vcco loc_vdd out plvlsel_vccaux
+plvlsel_vcco plvlselb_vcco por_b_vcco
.prot FREELIB
%'X\V-wWFM>Ga#DW%)J-0d8
/398Zx7%V%cGZv7G(Wef\l
svw+*7;.4\2:R.a.o\;:kAJze:q
%/X78-#=0KD!8Y#/-[%-5d8
/M9_ xg/#+XxLWs/D+%xaYB+Lt6
eO6j##+-X787%v%C- V7%v%C- V7*90bX4yb#=-/B:(7\O-UXMV_JWRba:L
)K  (xD\%# 9X=23mGsz=p23mGsz=p28\tk mE)S7x(39I*p!vwr%A:$Rz((6
eO8%3+:=2'g7c :r.A.O\;:r.A.O\;:=md/%TOmUX4y=+3w9i*P!VW+3ahP7$;-! 2\9qpy
3MZj=#[O-,2h#0wfm>gA#dwfm>gA#dw+o.ujm43M9C*7!;J:RA:zH# 7) :$Rd(*[xm/_3q
7O['*7T! 98zX7%v%CgzV7%v%CgzV7\90b7d'j;Wi)%-7<#=-/BS$#4(P94 yx#!<)128Ogv+)%0
'\\2m9_ XG#tF\iUT,/Y%K=M'7:;[4D78%#=0KD!8Y# uM0'w);3:dah$,q+H:XMV_JWRba:L
)K  'xZt%[w2R-L/0%s6k>;\)# 9X=gh#Swfm>gA#dw+o.ujm43M9C*7!34:RA:zH#!O)12\9Q+Y
3Mij=vw+*7H(=# 9X=23mGs6k>D$,t/Q\>aW7*90B7D'J;wI)%-0<#=-/bJ*7\o-'xmv_.P:00*77\D%m[*5[
492x +$#<2'9$d:60S6K>d$,T/q\>Aw7%v%C-A[M#tuM0'w);3:da:ZIRWF)1-5>#!o)12\9q+y
3Mij=jw007280S$Qw['$,t/Q\>aW7%V%c-a[m#TUm0'W);3:DA)zJU4:RA:zBYwr%A:$Rz((9[![m\(C6
eO6%33:jP/m7c [9[(J=]4:r.A.+g/09$Ow9sv7Uu2,_-xm9i*P!-l:0P*P7$K-/Z
F>.SP39.mj7C [9[(j=UP:R.a.+G/09$oW9SV7uU2,_-XpixLYX+uE9[FYB#!O)\H$Rz(39[![m\(C6
eO6%3l:=2'g7c :=2'7>;WFM>G<Sgv:]md/%TOmUX4yb+3:ra:ZbyWR%a:$rZ((6
eO6%3,:jP/m7\) 5D78%#=0KDp[STWFM>G<Sgv:]md/%TOmUX4yx+jP9i*P!-l:0P*P7$K-/Z
F>.SPW9[(j=Y3:Jp/M7%V%c-a[m#=0kdP[stw2o.ujm43M9C*5!;wf)1-5>#!O)12\9Q+Y
3Mij<#[O-,gh#Sw2R-L/0%FQ\>aW7:;[4xLWs/y%k.26\tk mE)S7x(39I*p!-L:0p*p7$k-/z
F>.Si:=2'G6C  9$L<,z)f-dP[stw+*7;$,t/Q\>aW7*90B7D'J;wI) -7<#=-/bJ*7$;-/xm/_jq
7O$'7$# 9x=2 Y0\qW['$,T/q\>Aw7%v%C-A[M#tuM0'w);3:da:ZIRWF)1-5>#!o)12\9q+y
3Mij>#[O-,gh#Sw2R-L/0%s6k>D$,t/Q\>aW7%V%c-a[m#TUm0'W);3:DA:zirwf)1-5>#!O)12\9Q+Y
3Mije# 9X=gh#Sw2R-L/0%s6k>D$,t/Q\>aW7%V%c-a[m#TUm0'W);3:DA:zirwf)1-5>#!O)12\9Q+Y
3Mij=-w+*7H;<# 9X=23mGs6k>D$,t/Q\>aW7*90B7D'J;wI)%-S7%((e%V$Rd((94uYX8
oU=U2h#0w!=xLWs/D+%xLWs/D+%xZ>mzwI) -07%((e1T$#4(C94 Y33wrBAHl
!$ 2y.'l
.ends iob_obc_lvlsh_p_x1
