** End of subcircuit definition.
************************************
** Library name: rnr_spice_sanjay
** Cell name: iob_obc_lvlsh_n_es
** View name: schematic
************************************
.subckt iob_obc_lvlsh_n_es in init_vccaux_lvlsh_b loc_gnd loc_vccaux
+loc_vdd out
.prot FREELIB
%UXzT%[WFM>Ga#DW%)F-*d8
/C9_ xg#=0kd!8y#/-:bH [
g+:W[/$,T/qn[ $Sqp>E/\L
)KTM98Zx7C :R.a.+d;:R.a.+d;:]MD/7x((efT$,Q+h/*28)QP(94 Y33wrBAHl
)K  sxD\%##+-xLWs/D+%xLWs/D+%xZ>mz203%+$uQPh:j23_jXC:xZ'_Ywr%A577$k-[xZAst -'z
F>#SP:Jp/M7C [9ID[62 O9ID[62 O9[oW9SV7'v2,_3X>2xLYX+u>9[FY=jwr%A577$k-[z
F>#SP(9[(j1##+9ID[62 O9ID[62 O9[oW9SV7'v2,_3X>2xLYX+u>9[FY=jwr%A577$k-[z
F>#S,:m4'$#<2'9ID[62 O9ID[62 O9[oW9SV7'v2,_3wf)1-5H#!O)12\9Q+Y
3Mij=-w+*7e77\) 5xLWs/y%k=m'7%V%c-a[1$o:]MD/%toCix4YJ+3>9I*p!-i:0p*p7$k-/z
F>.SPM9_ xg##+-xZt%]P:R.a.+G/'0E26\tk mEJ07x(MeUs$,Q+h'/2\yQ+:00*p[
492x t$#<2#(X\V-wWFM>G<Sg$R3XlwS/Y%K=M'7*90b7d'bRWi)u-sh#=-/Bj)7$;-/XM/_JQ
7O$'7<# 9x=2H#c2q\>Agr4SF\iUD60WFM>G<Sg$R3XlwS/Y%K=M'7*90b7d'bRWi) -57%((E%S$rD((94Uyx8
oU]7H)7\) (v280S$:R.a.+G/'0E23mGs6k>;\)#TUm0'W)-4:DAHz>]wf)1-5H# 7)/2\yQ6394uY=# zk.ZYB8
oU]7H77t! 98Zx7\) (v23mGs6k>;\)#TUm0'W)-4:DAHz>]wf)1-5H# 7)/2\yQ6394uY=# zk.ZYB8
oU]7H*7\) 5x787\) (f23mGs6k>;\)#TUm0'W)-4:DA)zJvwf)1-5H#!O)12\9Q+Y
3MZS7C [98Z$,t/QN[ $,t/QN[ $#KV<9C*7!5wf)1-pi# 7)U2\yQ+:00*p[
+!+]6dJ[
.ends iob_obc_lvlsh_n_es
