** End of subcircuit definition.
************************************
** Library name: rnr_iob
** Cell name: iob_obc_drv_c
** View name: schematic
************************************
.subckt iob_obc_drv_c io loc_gnd loc_vcco opn opn_del opp opp_del
.prot FREELIB
7O['P7cv:M$z.Y<=:r.A.O\;:r.A.O\;:=md/%TOmUX4y=VxP:Xlyx+I:=e*57$;-/XM/_3W7%a:ZjV4:30*P!up:3gAV_Jxm:V2'OgK-/Bj)<# ZK.zyb8
o+/x7W7tT+9ID[62 O9ID[62 O9[oW9SV7uU2,_3ihi/23_jX>9[FYB#!O)12\9QP:3p*p!;ip9EuYX+J39E![yQ+hu/+$)2/<)1-5Hrw+N>D8_-q
7]%2HM#v2]XlwS/Y%K.23MgS6K>d$.kv<x.fsj#M-[%-0h#=-/Bj*7\O-UXMV_3WRba:$)D((EuS074K-/BY0<#OZKP*P!;IP9e![9q+H'/+$#2/0=ajL
)KT /x7W7tT2cp(37%V%c-a[m#=0kdP[stw2o.ujm43M9C*7B+4>9I*p!-L:=E*S7$;-[xm/_jw7%A:zJv4:30*p!54p9E![yQ+hu/+$)2/<)1-5Hrw+N>D8_-q
H0[I:MsQ
.ends iob_obc_drv_c
