** End of subcircuit definition.
************************************
** Library name: rnr_spicemodel
** Cell name: iob_diff_amp
** View name: schematic
************************************
.subckt iob_diff_amp enable in1 in2 out vccaux
.prot FREELIB
%UXA779K<9>*;!R[y
k%2t=#y<BxaY=3XM:_0
[=#59j 2<9ZW%)u)Zj:Q
%:X/779K<9>*7x+pwjZ
a07\) [*y$+zk:kAez<:q
%2XzT%3j)9-U/7g(3/BY [
gj:% 2<9ZW%)H-7d8
/E9[(j=vL:\0u$sQP3e \l
)C43[x(810=99-a[1$o:=2'7=jw7wd'h#9wI=A:z<j+:R[*p!-i(9[\h#2);BAHl
TxT-/b+pX#=2)1-5Hjw2J8ZA0'k-[z
F>.S+:=2'7HYw;*_H$#<23[U2<sG$r3xi>mz203%+$uQuh[ 23_jXC2xZ'_Ywr%A:$Rz(36
eI0=RW;*_h$0\$[r22<Sg$R3Xp[S[!79$Ow9sv7'V2,_JxmSXlyx+U>94 yx#!<)10
'\*2392h$8<[39-A[1$O:\>Agr4W2O.UJM4UP9c*5!3p:ra:ZbyW+3av$rD((94Uy=8
oU]7J$#<23$j2h#-w9[xP[s[!79$oW9SV7'v2,_-X3[xLYX+u)9[FY>#!O)12\9QPY
3MijH#F396( =#y%k=m'79/%54F$.KV<X.F5<#m-'bH77%((e%y$#4(E94 YX#!<) 0
'\*2m9>h$4\p:* 2<Sg$R3XI>MZ203%+$UqUH[ 23_Jxc2Xz'_yWR%a:$rZ(36
eO6%RW0072:0:p:- 2<Sg$R3XI>MZ203%+$UqUH[ 23_Jxc2Xz'_yWR%a:$rZ(36
eO6x# 9x hs7')T[Xp[S[!79-A[1$O:]md/%TOcIX4yb+p39i*P!-h:=e**7$;-/XM/_3Q
7O$'(7\) [/v$#<23[12:0:p:\>Agr4W2O.UJM4UP9c*5!Rp:ra:Zb5W+3aj$rD((94Uy=8
o+i1:$#<23:h2t#[Ff*x3tD3w6B028\tk mEJ07x(CevH$,Q+h'j28)Qu:0p*p7$k-[z
F>#Su:=2'7=;w!=%2v=#y<BxZ>mz203%+$uQPh/v23_jXC2xZ'_Ywr%A:$Rz(36
eO8%3W+*7h)>#59j 280spw2Xp/9# uM0'w)-4:dahZxRWF)1-5$# 7)H2\Yq+:00*7[
49+xu2X=##+[X 779K<9[Ow9sv7'V2,_3x(IXlyx+U)9[fy>#!o)12\9qpy
3MZj<#VrXx3tD3w%[xP/9# Um0'W)-4:DAHzXrwf)1-5$# 7)h2\yQ+:00*7[
49+xJ2[=#59j 2<9ZW6b028\TK Mej07X(3E1+$,q+H'J28)ql:0P*P7$K-[Z
F>#Si:% 2:0:P:\0u$+zk:=MD/%toCix4Y=++p9I*p!-L:=E**7$;-/xm/_3q
7O['P7\) [*Y$8<[39-U/79K<9[Ow9sv7'V2,_3x(IXlyx+U)9[fy>#!o)12\9qpy
e4Z68t2Y
.ends iob_diff_amp
