** End of subcircuit definition.
************************************
** Library name: rnr_spice_sanjay
** Cell name: iob_obc_pred_p_es
** View name: schematic
************************************
.subckt iob_obc_pred_p_es loc_gnd loc_vccaux loc_vcco opp opp_del oppi
+oppi_del pslew0 pslew1 pslew2 pslew3 pslew4 pslew5 pslew_lowvcc
.prot FREELIB
7O['(7\) ' :$,T/qn[ $#<2m'%23MgSZ=P28\TK Mej07X(3E S$,q+HIXMV_JWRba:L
)K  [U2W.*sO*I2W.*#Q%2L$#<2Mu123mGsz=p28\tk mE)S7x(3e*23_jX>9[FYB#!O)\H$Rz(36
ez7>VW+*7j7x#t<r24P7\) U v$,T/qn[ $#kv<x.f5<#M-[B:$,q+H:XMV_JWRba:L
)\J:=2'5=jw2BI(,J#=0kd!8y#=0kd!8y# Um0'W)-4:DAHzXYwf)1-5H#!O)12\9Q+Y
3MZj=# 9XUJ97*kf*C+$,t/QN[ $,t/QN[ $#KV<X.F5<#m-'bT$,Q+h'/2\yQ+:00*p[
49+xJ280sUw:XlwS/d+%XlwS/d+%XlwS/d+%Xz>MZ203%+$UqpH[/23_JxP94 yx#!<)10
'\\2e9[(Jbu+:r.A.+g/'0e23MgSZ=P23MgSZ=P28\TK Mej07X(3E%+$,q+H'*2\Yq+:00*P[
4 3$u280s3c2XI/,<M39[(Jb-U:r.A.O\;:=md/%TOcIX4y=+p:ra:Zh#!o)12\9q+y
3MZj=Uw+*7J;X#=0kdP[s[!79ID[62 O9ID[62 O9[oW9SV7'v2,_3XCixLYX+uW94 YX#!<)10
'\\2#9[(Jb5U:]0lTUJW+*7j)$#=0KD!8Y# uM0'w)-4:dahZx#=-/BS$rD((94Uyx8
oU=7H77\) 'vV$.z=9DdLWu9/%9ID[62 O9ID[62 O9[oW9SV7'v2,_3XW9I*p!-i:=E*57$;-! 2\9QPY
3[J$#<2C[123mGs6k>;\)# 9X%ep7%V%cGZv7\90B7D'BrwI) -5<#=-/bJ(7$;-/xm/_jq
7O['s7Tt29.I64# 9xuj97%v%CgzV7\90b7d'j;Wi)%-5<#=-/BS$#4(m94 yx#!<)10
'\\23:XzT%-I)9$U30X+:r.A.O\;:r.A.O\;:=md/%TOcIX4y=++:ra:Zh#!o)12\9q+y
3[y$#<2M'j269%)IuxLWs/D+%xLWs/D+%xZ>mz203%+$uQPh/h23_jXC:xmv_jwrBA:l
)K  /xZt%;u)9$u30xi:R.a.o\;:R.a.o\;:=MD/%toCix4Y=++E9I*p!-i:=E*57$;-! 2\9QPY
3MZj<# 9X%Hp7*kf*Cs$,t/QN[ $,t/QN[ $#KV<X.F5<#m-[b:*7%((e%s$#4(C94 Y33wrBAHl
)\PEixZt%-P(9$u30xP:=2'5eYwfm>gA#dw+o.ujm4up9C*7!3wf)1-)7$;-/xm/_jq
7O['7x#v2]Xd6.cW+*7j0>#=0KD!8Y# uM0'w);3:dahZI#=-/BS$#4(c94 y33WRbahL
)K  [j280SuC'xi/,<m39ID[62 O9ID[62 O9[oW9SV7'v2,_3X39I*p!vwr%A:$Rz((6
ez7IVW+*7)5$#t<r2457%v%CgzV7%v%CgzV7\90b7d'bRWi) -P>#=-/BS*7$;-/XM/_JQ
7O['57\) ' :$.Z=9dV23MgSZ=P23MgSZ=P28\TK Mej07X(cE*23_Jxc:XMV_JWRba:L
)\3:=2'SB5wfm>g<sG$r3xZt%-J(9ID[62 O9[oW9SV7'v2,_3XCixLYX+uW94 YX#!<)10
'#3l)9[(Jb3+:]0lTU-WFM>Ga#DWFM>Ga#DW+O.UJM4UP9c*7!Jl:ra:ZhyWR%a:$rZ((6
eO8%3,:=2'sx-W2bi(,x#=0KD!8Y#=0KD!8Y# uM0'w)-4:dahZx#=-/BS$rD((94Uyx8
oU=7Jp7\) 'fV$.z=9D 23mGsz=p23mGsz=p28\tk mEJ07x(3e 23_jX>94 YX#!<)10
'\\2>9.I66D)F9.I64/;9rXzT%-p(9id[62 o9[Ow9sv7Uu2,_-xcIXlyx+I:=e*s7$;-/XM/_JQ
7O['7b# 9xu)P7*KF*cG3MXY%KXlwS/d+%XlwS/d+%Xz>MZ203%+$UqpH$Xlyx+U>9[fyb#!o)\h$rZ(36
eO8%34:=2'sb5WFM>Ga#DW+*7j(h#=0KD!8Y# uM0'w)-4:dahZ=VWF)1-07$;-/XM/_JQ
7O['7># 9xuh*7*KF*c:$#<2m/%23MgSZ=P28\TK Mej07X(3E123_Jx>94 yx#!<)10
'#3jc9[(Jj-h:]0lTUJW+*7j9b#=0KD!8Y# uM0'w)-4:dahZx#=-/BS$rD((94Uyx8
oU=7J77\) u%J$,t/QN[ $,t/QN[ $,t/QN[ $#KV<X.F5<#m-[bH)7%((ev2\yQ+:00*p[
492x12w.*So*i2w.*#:r.A.+g/09id[69/%MXI>MZ203u)$UqUH:V23_JxcSXz'_5WR%a577$K-[Z
F6=jP:m$i$m*T!9ID[69/%mxLWs/y%k.26\tk mE)S7x(Ce/+$,Q+h'h28)QH:0p*==#!<) 0
Zr\t;M70
.ends iob_obc_pred_p_es
