** End of subcircuit definition.
************************************
** Library name: rnr_iob
** Cell name: iob_lvds_dt2
** View name: schematic
************************************
.subckt iob_lvds_dt2 enableN_0 enableN_1 enableN_2 enableN_F0 enableP_0
+enableP_1 enableP_2 enableP_F0 out_pn1 out_pn2 vcco vos_pn1
+vos_pn2
.prot FREELIB
7O$'P-#Y0bDI8b#)+53lT./+:M4'..\U:\>Aw7*90b7d'bRWi)F-)<RWF)1-5># 7)%2\Yqp:00*774;-/B))<#O<)1-0>RW7n> yx+3>IXfaSZ((Euj0[
492x1;$M$2q][h$0\$[r2I.x#Y0bDI8=#Y%K.26\TK Mej07X(#E/+07%((E%v$#4(c94 y=#!<) 2'Yq+HU/+$)Z((EVv074d%%a:ZjV4:3gA/_Jxm'V0
'\*2c5Xd\%/t+[X(810=9]Dj$+TKq][h$+g/09$Ow9sv7'V2,_]x>IV23_JxcSXz'_yWR%ah$rZ(39e yx+3>IXf/_JxPSV2'Og;-/B))<#OZK0*P!;UP6
eO6%-f:\.U..\U:*[;X,<tq'Xd\%/t+'Xp[STW2O.UJM4UP9c*;!V4P9i*P!-l:=e**7$;-[XM/_3W7%a:ZjV4:30*P!RlP9e![Yq+HU/+$)2/<)1-sbRQ
7O$'7-/v2xXpw9/t+'Xpw9/t+'Xpw9/t+'Xp[STW2O.UJM4UP9c*;!V4P9i*P!-l:=e*57$;-[XM/_3W7%a:ZjV4:30*P!RlP9e![Yq+HU/+$)2/<)1-sbRQ
7O$'7-#Y0bDI8b#)+53lT./p:M4'..\U:\>Aw7*90b7d'bRWi)F-)<RWF)1-5># 7)/2\Yqp:00*774;-/B))<#O<)1-0>RW7n> yx+3>IXfaSZ((Euj0[
492x ;$M$2q][h$0\$[r2I.=#Y0bDI8=#Y%K.26\TK Mej07X(#E/+07%((E%v$#4(>94 y=#!<) 2'Yq+HU/+$)Z((EVv074d%%a:ZjV4:3gA/_Jxm'V0
'\*2(-D\$+TKq][j$0\$[r2I.dJW007G6#-W6K>d$.kv<x.f5<#M-:B:*7%((E%v$#4(c94 y=#!<) 2'Yq+HU/+$)Z((EVv074d%%a:ZjV4:3gA/_Jxm'V0
'\*235Dd6%#Y0bDI8=#Y0bDI8=#Y0bDI8=#Y%K.26\TK Mej07X(#E/+07%((E%v$#4(c94 y=#!<) 2'Yq+HU/+$)Z((EVv074d%%a:ZjV4:3gA/_Jxm'V0
'\*2(5D\$M$2q][h$0\$[r2I.dJW6M0G6#3W6K>d$.kv<x.f5<#M-:B:*7%((E%v$#4(c94 y=#!<) 2'Yq+HU/+$)Z((EVv074d%%a:ZjV4:3gA/_Jxm'V0
'\\2(-Xpw9/t+'X(810=9=D:$M$2q][j$+ZK:=md/%TOcIX4yI+h#IXlyx+I:=e*57$;-[XM/_3W7%a:ZjV4:30*P!RlP9e![Yq+HU/+$)2/<)1-sbRQ
7O['P1#vRxDI8=#)+53lT#/+:\.U..\p:\0U$#kv<x.f5<#M-$BY;<#=-/BS$#4(c94 y=#!<) 2'Yq+HU/+$)Z((EVv074d%%a:ZjV4:3gA/_Jxm'V0
'\\235Dd6%#Y0bDI8=#Y0bDI8=#Y0bDI8=#Y<bXz>MZ203%+$UqjH2F+$,q+H:Xz'_-WR%ah$rZ(39e yx+3>IXf/_JxPSV2'Og;-/B))<#OZK0*P!;UP6
eO8%JfqjXpw9/t+'X(810=9=D\P7T! C$z579K<9[Ow9sv7'V2,_;xeUXlyx+I:=e*57$;-[XM/_3W7%a:ZjV4:30*P!RlP9e![Yq+HU/+$)2/<)1-sbRQ
7O['P1/[:M4'..\p:*[;X,< qj12<MZS2= 2<9ZW+O.UJM4UP9c*s!y3:ra:Zh# 7)%2\Yqp:00*774;-/B))<#O<)1-0>RW7n> yx+3>IXfaSZ((Euj0[
49+x /.M*2:\.U..\U:\.U..\U:\.U..\U:\0U$#kv<x.f5<#M-$BY;<#=-/BS$#4(c94 y=#!<) 2'Yq+HU/+$)Z((EVv074d%%a:ZjV4:3gA/_Jxm'V0
'\\2c-Xpw9/t+'X(810=9=Dj$M$2q][j$+ZK:=md/%TOcIX4yI+h#IXlyx+I:=e**7$;-[XM/_3W7%a:ZjV4:30*P!RlP9e![Yq+HU/+$)2/<)1-sbRQ
7O['51#vRxDI8=#)+53lT#/U:\.U..\p:\0U$#kv<x.f5<#M-$BY;<#=-/BS$#4(e94 y=#!<) 2'Yq+HU/+$)Z((EVv074d%%a:ZjV4:3gA/_Jxm'V0
'\\235Xd\%/t+[X(810=9=Dh$+TKq][h$+ZK:=md/%TOcIX4yI+h#IXlyx+I:=e*)7$;-[XM/_3W7%a:ZjV4:30*P!RlP9e![Yq+HU/+$)2/<)1-sbRQ
7O['7-#Y0bDI8b#)+53lT#/p:M4'..\U:\0U$#kv<x.f5<#M-$BY;<#=-/BS$#4(>94 y=#!<) 2'Yq+HU/+$)Z((EVv074d%%a:ZjV4:3gA/_Jxm'V0
Zr\t;M70
.ends iob_lvds_dt2
