** End of subcircuit definition.
************************************
** Library name: rnr_iob
** Cell name: iob_tlvsht2_25
** View name: schematic
************************************
.subckt iob_tlvsht2_25 A V Y1 Y1_vdd Y2 por_b
.prot FREELIB
7=X#769;o9=2<9ZW6b028\TK:da:ZbyWF)1-PI#!o)12\9q+y
3$2E=/yO%x;$+d;:\p $.KV<9C*p!rH:RA:zXUwr%A:$Rz((6
eIs7PU:].3.-#Y:\XI>MZ203%+$Uq+HI%23_Jxc:XMV_JWRba:L
)*u:<%2E=#y:\xi>mz203%+$uQ+hixLY=#!O)12\9Q+Y
3$H$23w8'xP$+#TUm0'W)-4:DA:z<#=-[xmv_jwrBA:l
)\3:\0u$2-w8[xP/9# Um0'W)-4:DA:z<-wf)1-5H#!O)12\9Q+Y
3[J$2-w8[dPvy#y<BxP/9# Um0'W)-4:DA)$,Q+h'/28)Qu:0p*==#!<) 0
'#3W8[X;$+ZK:\0U$#kv<x.f5<#M-UXlyx+U>9[fyb#!o)\h$rZ(36
BM8.'v 6
.ends iob_tlvsht2_25
