** End of subcircuit definition.
************************************
** Library name: rnr_spicemodel
** Cell name: ioi_inputmux
** View name: schematic
************************************
.subckt ioi_inputmux i_inff input_optinv_sel out_comp out_true
.prot FREELIB
%'Xp/9##qW[2[_yx32_0
[h#Y<bXzT%5j:KaYZx:Q
%[Xp/9#vRxD':r<W%) j [
gj:\0U$4/#+j_2[_yxejZ
ap79k<9.mj6GVU]xaY=;X)Jz
a079k<9[(j=33:kA+z>Y[Y
kU2<9zw!c3gh##/-sbe [
gh:\0U$#<23[V2[_5xwjZ
Fhy%:Qo4F.###Q-d7879k<9-u/79k<9-u/7\) sxP/9#yO%xP/9#yO%xP/9#yO%xP/9#yO%xP/9#yO%z
$hmCspX.H.\$oY
38 32/9r3di$4/#+9-u/79k<9-u/79k<9[(jBvw6B02<ydw6B02<ydw6B02<ydw6B02<ydw6B02<ydq
$W.7.<sv3CmM'[
4M39[(J=-,:=2'sI#9ed83T7X((E%h$,qp(/XUyx+Uc9mA6_D[uK$O*7kM;)P\>U'9e6
:O:_3WuKahL
)x+:=2'S># 9X J)7KLIw6($uQ+h' 23_3+(90*p!-u:o>iYy:9%]MV$\x5-%_o,8KLY
8M3Y=#9%) 0
'4k!7C0#8S/t:\0U$4/fqW[2<9ZW6b02<9ZW+*7Y(79;o9-U/79K<9- V79K<9- V79K<9- V[
a#0WD78\$Oq=24L
)C9r3duE#GsU9- v7Cs!=xP/9#y<BxP/9# 9XhH$+zk:\p $+zk:\p $+zk:\p $+zk:\p l
TCV!c8Z>R4s+*C0
'4k!7C=Ue#gS29- V7cS!=Xp/9#Y<bXp/9# 9xV)$+ZK:\P $+ZK:\P $+ZK:\P $+ZK:\P L
TCV!c8Z>R4s+*C0
'43W6%P2H60S!=Xp/9#Y<bXp/9# 9xF+$+ZK:\P $+ZK:\P $+ZK:\P $+ZK:\P $4T#qW[O\)/ 9dZ
Fh4t#Q%='G4\s0]778+# 9XUT$#<2Msx7.-/#+98gh## 9X1H;$##+]4'.m*2!=-g/0%q
$W.7.M*2!=-2,./9R3aS$U\Su0e*57X qW[pP_;Wi]D78+J()9cz.4\Y3)u0
oU*S!=-hy$8
o!uU2h#*! c.ij4\yQB2L$#<2([fy$)Cs!=-2,#Q+hi1:$,\((e1Tp7\[!=G(:9QPY
8CiYX+4(/xL6_jX($126DC z*6uY=8
o!u 280SPC:xZt%jP#/xFh6C 69CZYX+L)/xL8_jX($128DC z*6uY=#m2) -9ejq
$r$*P!Jj(9$\H#2);bahL
)Cu:=2'S># 9X H;74#Qw[P$u\((e%:p7% -/b:(X# tw[!t8z(39CiYX+u(/z
$3.Q+h/*:$.:#+N23/_3q
7W/v$#<2m$XzT%Vh:38GH#9Wi=a:ZbJ+:r[*P!Jj(9[\H#2);bah$U*((E%:P[
a=2)1-PIJW2j8za0'K-[Z
Fhi3w+*7H7<##Qw[\ 74#Qw[P$u\(Ce/:p7% -/b:(X# tw[!t8z(C9CiYH+L(/z
$3.Q+h/*:$.:#+N23/_-q
7W%t$#<2)$XzT%3pm9e7.4\Y:d[*77% -/B:(x# TW[!T8Z(39cIyb#=2)1-PIJQ
$]_78O<5<) 0
'4-l:=2'7=;W+*7h7<#O!C8z<7X -[Xl8_Jx($128dc Z*6Uyb#M2)%23.q+H/*:L
T*[!=G(:9QuY
38J9># 9XhH$#<23[*2'4/#+\x48_3wf=A:zXU+:=_78o<5<) 2,.Qu:R$*p!jJ(6
:I 4\d9Y0*7[
4#(9[(J=-,:=2'7bRW7WD78+#M+)1-*$JWF=a:Zxu+:=_78O<5<) 2,.qpH2F:L
T%T-/b:(X#Ttw[!t8z(36
e7sh;W007GJ8$):=2'7b]W7WD78+#M+)%23#q+H/*:$#:#+n23/_-Wi]aj$,*((E1tP[
atTW[!T8Z(>6
e77=5W007G[Mkt:=2'7bVW7WD78+#M+)%23#q+H/*:$#:#+n23/_-Wi]aj$,*((E1tP[
atTW[!T8Z(>6
BM8.'v 6
.ends ioi_inputmux
