.GLOBAL vss vdd vcco vccaux
.PARAM dfln=0.07 dflp=0.07 dflnn=0.07 dflpn=0.07
.PARAM dflnmlvt=0.1 dfln12=0.12 dflp12=0.12
.PARAM dfln15=0.12 dflp15=0.12 dflnt=0.24 dflpt=0.24
.PARAM dflntt=0.27 dflptt=0.27
.PARAM dfwn=0.2 dfwp=0.2 dfwnlvt=0.15 dfwplvt=0.15
.PARAM dfwnmlvt=0.16 dfwnmox=0.16 dfwpmox=0.16
.PARAM dfwnt=0.36 dfwpt=0.36
************************************
** Library name: rnr_spice_sanjay
** Cell name: rcload
** View name: schematic
************************************
.subckt rcload in out
.prot FREELIB
H]=3g\#/FM= y=:W;r.;V_3Q
%[Xd\%#Y<bXAyS%v'%Z
ap7C :\0u$sQ/fm= l
8jw!=xD\%#5-yIDGy8
Xr=$3W%8
.ends rcload
** End of subcircuit definition.
************************************
** Library name: XI_MacrosLib
** Cell name: xi_inv
** View name: schematic
************************************
.subckt xi_inv A Y
.prot FREELIB
H]=3g\#M+)123#q+:=_78O<5<) 2,.q+:r$*P7*[!=g(:9qpy
3[H$2#$:\0u$+zk:=MD/7x(I=xLY,\w+3AZ 4\D9y02\yQ6394uY=8
o2[x#$1#yO%xPvy#TUm02,_xT:RAL67\o-]_78o<5<94 Y33wrBAHl
!$ 2y.'l
.ends xi_inv
** End of subcircuit definition.
************************************
** Library name: XI_MacrosLib
** Cell name: xi_nand2
** View name: schematic
************************************
.subckt xi_nand2 A B Y
.prot FREELIB
H]=3g\#M+)123#q+:=_78O<5<) 2,.q+:r$*P7*[!=g(:9qpy
3[J$#<2C/x/$+zk:\0u$#KV<9C*,##=-R[28)Q tw[!t8zwr%AH$Rz((6
ez77PW'9[(JbJW6b028\TK:da487%(F=Xz'_\[!=g(:9#!o)12\9qpy
3$H$2#$:\p $+d;:]MD/7x(I]xLY,*w+3Ai 4\D9y02\yQP:00*p[
4tc9o2X79;o9- V7*90bX4yU*WF)iI$#4(2j8za0'K:0P*77$K-/Z
-\#*50Xz
.ends xi_nand2
** End of subcircuit definition.
************************************
** Library name: XI_MacrosLib
** Cell name: xi_nor2
** View name: schematic
************************************
.subckt xi_nor2 A B Y
.prot FREELIB
H]=3g\#M+)123#q+:=_78O<5<) 2,.q+:r$*P7*[!=g(:9qpy
3[J$2#F:\0u$+zk:=MD/7x(I=xLY,\w+3AZ 4\D9y02\yQP:00*p[
4 39o2g79K<9-U/7\90bX4yU\WF)iz$#4(+j8za0'K:0P*77$K-/Z
F6B# 9X%V$-#yO%xPvy#TUm02,_xT:RAL67\o-]_78o<5<94 Y=#!<)10
'.3W89=280sUe9- V7*90bX4yU*WF)iI$#4(2j8za0'K:0P*P7$K-[Z
-\#*50Xz
.ends xi_nor2
** End of subcircuit definition.
************************************
** Library name: rnr_iob
** Cell name: iob_pdown
** View name: schematic
************************************
.subckt iob_pdown extst_smpl ghigh_b gts_cfg_b hswap_en pdown io
.prot FREELIB
7=%Y(7cv:=2's$# 9xu:$+ZK:=md/%TOmUX4yI+Uw9i*P!VWR%ah$rZ(36
ez5># 9xu:$#<2m(Xp/9#Y<bXz>MZ203%+$UqUH[Xlyb+U:0P*77$K-[Z
Fhi;wzF8!d60w+*7))74#Qw[P$u\((e%:p7% -/b:(X# tw[!t8z(39CiYX+u(/z
$3.Q+h/*:$.:#+N23/_3q
7WV+$#<2>(XzT%;h:38GH#9Wi=a:ZbJ+:r[*P!Jj(9[\H#2);bah$U*((E%:P[
a=2)1-PIJW2j8za0'K-[Z
Fhirw+*7s07\) :%280S3#9E7.#[ O'x48_jXC/123#Q+h/*:$#:#+N23/_3wI]A:zBj+Y
8IiYX++W/xi 4\D9y0*7[
4#>SX!D42*q-XIVMX :=2')b#O!C[;8Y-Wi=a:ZbJ+:r[*P!Jj(9[\H#2);bahL
TxT-/bJpX#=2)1-pijw2J8ZA0'k-[z
Fhivw937uj6z92RxZt%;i:=2')<#o!c[;8y-wI=A:zBj+:R[*p!jJ(9[\h#2);BAHl
TxT-/bJpX#=2)1-pijw2J8ZA0'k-[z
Fh<vwzX0g[D2s[9;u,1*s9=xZt%v,:38g8m'u:D[*p!-+(9IZYX++W/xZ 4\D9y0*7[
aM2)1-5xJWF]a:Zxu+:]_78O<5<) 0
Zr\t;M70
.ends iob_pdown
** End of subcircuit definition.
************************************
** Library name: XI_MacrosLib
** Cell name: xi_nor3
** View name: schematic
************************************
.subckt xi_nor3 A B C Y
.prot FREELIB
H]=3g\#M+)123#q+:=_78O<5<) 2,.q+:r$*P7*[!=g(:9qpy
3[)$2#/:\0u$+zk:=MD/7x(I=xLY,\w+3AZ 4\D9y02\yQP:00*p[
4 c9o2X79K<9-U/7\90bX4yU\WF)iz$#4(+j8za0'K:0P*77$K-[Z
F8=#::5xP/9#y<BxZ>mzwI)CZ$,Q=+9[FY#:#+N23/7$;-/xm/_3q
7]u280s3c9>2<YDW6%P26\TK:da467%(F]Xz'_*[!=g(:9#!o) 2\9q+y
3$J$#<2M2x/$#<2M'xPvy#TUm02,_xT:RAL67\o-]_78o<5<94 Y=#!<) 0
'.3W89=280s3)9- V7*90bX4yU*WF)iI$#4(2j8za0'K:0P*P7$K-[Z
-\#*50Xz
.ends xi_nor3
** End of subcircuit definition.
************************************
** Library name: rnr_iob
** Cell name: iob_tlvsht1_33
** View name: schematic
************************************
.subckt iob_tlvsht1_33 A V Y1 Y1_vdd Y2 por_b
.prot FREELIB
7=%2eb#:3C- V79K<9-U/7\90b7d'j;Wi)V-;>#=-/BS$#4(c94 y33WRbahL
)K  /xP/9#:39OJ$+zk:=MD/%toMux4Y=#=-/bs$Rd((94uYX8
o+[x#77[w6B02<9zw+o.ujm43M9C*0!]L:RA:zH# 7)%2\yQ6394uY=8
o2'x#57pP:\xP$.KV<X.FSJ#m-/by$,QP:0p*p7$k-/z
F6=#:39OJ$+#y:]MD/%toMux4YX+H:RAH$Rd((94uYX8
oU]7:$23w2m6gx79w69$oW9SV7uU2,_jXp'xLYX+uE94 YX#!<)10
'.#:3C- V7[W6%P2<YDW2O.U$Uq+HIJ23_Jx($XMV_JWRba:L
)\w8[dPvy#$:\0u$+zk:=MD/7x((e%V$,Q+h/*2\yQ+:00*p[
+!+]6dJ[
.ends iob_tlvsht1_33
** End of subcircuit definition.
************************************
** Library name: XI_MacrosLib
** Cell name: xi_aoi22
** View name: schematic
************************************
.subckt xi_aoi22 A1 A2 B1 B2 Y
.prot FREELIB
H]=3g\#M+-a:$,\((9czX6:#+n23/_3Wi==*P7X 'C_78O<5<) 2,.[((9iIyx8
_I]=g 4\D9y0*77xT[)12,.0stw[!t8z(36
ezXb# 9xu)$--W6b02<9ZW+O.U$UqM+-Xly,\W+3a48-/[!=g(:9#!o) 2\9qpy
3[/77pw[[xZt%;3:\0u$#KV<9C*,#0wf)IZ$#4(I=3g 4\D9y02\yQP:00*7[
4 ''XzT%Vp:5%2<9ZW6b028\TK:da481#=-r[28)qM+5D\H#2);bXMV_3WRbahL
)\$39O2G=# 9X/H$+zk:=MD/7x(I==23_% :=E*,#[stw[!t8zwr%AH$Rz(36
eIgb#::5%280s4(9- V7*90bX4yU*$:ral67\O-d$;.dc Z*6U$rD(394Uyx8
o25 2E7[P:=2'0X#yO%xi>mzwI)CiG7%(f]xZ'_xT'c_78o<5<94 Y=#!<)10
'.0U:=2'0x#fc9- V79;o9$Ow9#M-d$/$,q=29[fyU*fqj8za0'K:0P*77$K-/Z
F6-3w+*7+p70P:\p $+d;:]MD/7x(I]323_%T:=E*,.0stw[!t8zwr%AH$Rz((6
BM8.'v 6
.ends xi_aoi22
** End of subcircuit definition.
************************************
** Library name: XI_MacrosLib
** Cell name: xi_aoi21
** View name: schematic
************************************
.subckt xi_aoi21 A1 A2 B Y
.prot FREELIB
H]=3g\#M+5a:$,\((9czg6:#+n23/_3Wi=3*P7X [C_78O<5<) 2,.[((9iIyx8
_I]=g 4\D9y0*77xT[)12,.0stw[!t8z(36
ezgb# 9x%Y$1-W6b02<9ZW+O.U$UqM+5Xly,\W+3a481/[!=g(:9#!o) 2\9q+y
3[;77pw'[xZt%-H:\0u$#KV<9C*,#[wf)IZ$#4(I==g 4\D9y02\yQP:00*p[
4 [9o2X79K<9-U/7\90bX4yU\f:ral87\O-d[/.dc Z*6U$rD(394Uyx8
o25 2E7[P:=2'Se#yO%xi>mzwI)CiG7%(f]xZ'_xT'c_78o<5<94 Y=#!<)10
'.0W+*7);70W6%P2<YDW2O.U$UqM2-Xly,*W+3a46-/[!=g(:9#!o) 2\9q+y
3$;57pw''xZt%;,:\p $.KV<9C*,.[wf)Ii$#4(I]=g 4\D9y02\yQP:00*p[
+!+]6dJ[
.ends xi_aoi21
** End of subcircuit definition.
************************************
** Library name: rnr_iob
** Cell name: iob_pup_vco
** View name: schematic
************************************
.subckt iob_pup_vco fst_cfg_b ghigh_b gts_cfg_b gts_usr_b hswapen io
+loc_vcco por_b_vcco pup sysmon_auxin
.prot FREELIB
7]uv$4TW+*7S*7\) :J23MgS6K>d$.kv<x.fsj#M-2Bj(7%((E%v$#4(c94 y=#!<) 0
'.uh:=2')$# 9x/v$,T/q\>Aw7%v%C-A[M#tuM0'w);3:dahZ>RWF)u-*7$;-[XM/_3Q
7W hs7\) $V2/2Z90=D;\)c :=2'0h#O!C[;8Y-Wi=a:ZbJ+:r[*P!Jj(9[\H#2);bahL
TxT-/bJpX#=2)1-pijw2J8ZA0'k-[z
Fh=3P:=2'*H# 9X*J$#<2WuxZt%r,:38g8m'3:D[*p!-+(9IZYX++W/xZ 4\D9y0*7[
aM2)1-5xJWF]a:Zxu+:]_78O<5<) 0
'43p(9[(J<]WFM>G<Sgv:=2')># 9xJY$#<2)UXIw8/fq\>Aw7cv[C7l<9H23Cu)L
)CLE9[(jiUwzX0g\9's[9G'/6G[zc326R*w+*7T574#Q5.75B#m+-A:zBj+:R[*p!jJ(6
:48-/[!=g(:9qp:d[;yx+U(/X481/[!=g(:9qp:d$;yx+U(/Xl6_Jx($10
oU*$qj8za0'K-[X46-q+H'1:$U*fqj8za0'K-[Z
Fh=3u:=2'0H# 9X*)$)Cs!=-2,#Q+h'1:$,\((e1Tp7\[!=G(:9QP:D$*p!-+(6
:l6_Jx($126dc Z*6Uy=8
o![ s$Dz2Qk_!.-# 9X*+$)Cs!=-2,#Q+h'1:$,\((e1Tp7\[!=G(:9QP:D$*p!-+(6
:l6_Jx($126dc Z*6Uy=8
o![1e$oSkQk_!.-# 9X*T$)Cs!=-2,#Q+h'1:$,\((e1Tp7\[!=G(:9QP:D$*p!-+(6
:l6_Jx($126dc Z*6Uy=8
o![1:$/zm']2Z$#<2E[xFh6C 69CZYX+u(/xL8_jX($128DC z*6uY=#m2)1-5Xjq
$r$*P!Jj(9$\H#2);bahL
)C,#9$m672*!N;gx7\) s 280SL>9E7.1t#C[x481Q+h'1:$,\((e1Tp[
aM+5D\H#2);bah$U\f-/BjPx#M+-D\H#2);bah$U*$-/BjPx#=2)1-PIJQ
$d$;.dc Z*6Uy=#M2-a:ZbJ+:d$/.dc Z*6Uy=8
Xr=$3W%8
.ends iob_pup_vco
** End of subcircuit definition.
************************************
** Library name: XI_MacrosLib
** Cell name: xi_nand3
** View name: schematic
************************************
.subckt xi_nand3 A B C Y
.prot FREELIB
H]=3g\#M2)123.q+:]_78O<5<) 2,#q+:r[*P7\[!=g(:9qpy
3$H$2#$:\p $+d;:]MD/7x(I]xLY,*w+3Ai 4\D9y02\yQ+:00*7[
4tc9o2X79;o9- V7*90bX4yU*WF)iI$#4(2j8za0'K:0P*77$K-[Z
F6J#::kxPvy#yO%xi>mzwI)Ci$,Q=29[FY.:#+N23/7$;-[xm/_jq
7=%280s3w93280s3m9-U/7\90bX4yU\WF)iz$#4(+j8za0'K:0P*77$K-[Z
F8=#::5xZt%;J:\0u$#KV<9C*,##=-R[28)Q tw[!t8zwr%A:$Rz(36
ezs7\) Uu2[79K<9-U/7\90bX4yU\WF)iz$#4(+j8za0'K:0P*77$K-/Z
-\#*50Xz
.ends xi_nand3
** End of subcircuit definition.
************************************
** Library name: rnr_iob
** Cell name: iob_up_dn_keep
** View name: schematic
************************************
.subckt iob_up_dn_keep eoc_user_en extst_smpl ghigh_b gts_cfg_b gts_usr_b
+hswapen inbufout loc_vcco io pup pdown keeper por_b_vcco fst_cfg_b
+sysmon_auxin
.prot FREELIB
7W$ wU\+:*e'/%/Ku]i2a/cdaC32a%ZS%jgGX7HKi5$(87\) (12HM##0-DIVMX y
38i\./y%m12 9Ss%JGgx72*!N;gx722<c>\A60wzX0g\9's[9;u,1*)+98D$,t/Q\>aW[
at0YD/.+g/09[(J>yW<<0Ow#/$R38z$4Tfq]4I.+gvy
38eS7<V%c4ut8/)+9G'/6G[zc3280S,)9[(jivw7wdZG#d3:D$*p!-+(9IiYX++W/z
$6DC z*6uY=#m+)1-5Xjwf=A:zXU+:=_78o<5<) 0
'4;h:W[/\dT! 9[(JE;W20$280sj#9e7.1T#c[X481q+H'1:$,\((E1tP[
aM+5D\H#2);bah$U\f-/BjPx#M+-D\H#2);bah$U*$-/BjPx#=2)1-PIJQ
$d$;.dc Z*6Uy=#M2-a:ZbJ+:d$/.dc Z*6Uy=8
o!u*280SL)9[(je;w2%.487\) sU2'4/$0w%H$u\$-/bJpX#=+)1-pijq
$d[;.dc Z*6Uy=#M+-a:ZbJ+:d[/.dc Z*6Uy=#M25a:ZbJ+:r$*P!Jj(6
:461/[!=g(:9qp:d$/yx+U(/X46-/[!=g(:9qpy
38e77W)9]23$#<2E:xFh6C 69CZYX+u(/xL8_jX($128DC z*6uY=#m2)1-5Xjq
$r$*P!Jj(9$\H#2);bahL
)C,(98ZxR:VrXxZt%YH:38gh#9wI=A:zBj+:R[*p!jJ(9[\h#2);BAH$u*((e%:p[
a=2)1-PIJW2j8za0'K-[Z
Fh>]w+*7T;7\) sh2'4/#+\x48_jXC/123#Q+h/*:$#:#+N23/_3wI]A:zBj+Y
8IiYX++W/xi 4\D9y0*7[
4#P(XzT%y3:=2';x#O!C8z<7X -/BjPx#=+)1-PIJW+j8za0'K-[X46_Jxc/10
o,*((E1tP7*[!=g(:9qpy
38yS7\) $/280SL>9[(je;w7wdZG#du:D[*p!-+(9IZYX++W/xZ 4\D9y0*77xT-/bJpX8
_f]A:zXU+:]_78o<5<) 0
'45U:]Pd,##tR]XzT%]h:38G8M'U:d[*P!-+(9izyx++w/Xz 4\d9Y0*77Xt-/BjPx8
_f]A:zXU+:]_78o<5<) 0
Zr\t;M70
.ends iob_up_dn_keep
** End of subcircuit definition.
************************************
** Library name: rnr_iob
** Cell name: iob_obc_drv_y
** View name: schematic
************************************
.subckt iob_obc_drv_y io loc_gnd loc_vcco opn opp
.prot FREELIB
7= 280sI>9.I87cv:r.A.O\;:=md/%TOmUX4yI+UP9i*P!VWR%ah$rZ((9e yx+3>IXf/_Jxw[XfaSD((EuS074d%ba:ZbV4:=gAw#qUy
3MZjB# 9X/s$,t/QN[ $#<2>:xLWs/D+%xZ>mz203U)$uQJh'v23_jX>94 Y=#!<)12'yQ+hu/+$)z((e*H$)2/O)1-SHrw7N>uYX+u>ixZAst -'z
F>#S+:=2')H#V2=x7W7%V%cGZv7\90B7D'J;wI)*-5<#=-/bs$Rd(394uYX#oO)1-SHrw7BA:zi3w7N> YX+3>ixFAsz((e%s07\D%m[*5[
49+x 280sI>9id[62 o9[(JhVWFM>Ga#DW+O.UJM43m9c*(!-4:ra:Zh#!o) 2\9q+:3P*P!;IP9eUyx+j39e![Yq+HU/+$)2/<)1-5hRW+n>d8_-Q
7] 280sI>9.I67%v%C-A[M#=0KDp[STW2O.UJM43m9c**!;3:ra:ZbyW+3ajP7$;-/XM/_3W7%a:ZjV4:30*P!54P9e![Yq+HU/+$)2/<)1-5hRW+n>d8_-Q
H0[I:MsQ
.ends iob_obc_drv_y
** End of subcircuit definition.
************************************
** Library name: rnr_iob
** Cell name: iob_obc_drv_xn
** View name: schematic
************************************
.subckt iob_obc_drv_xn io loc_gnd opn
.prot FREELIB
7=12HM#v2=XlwS/d+%XlwS/d+%Xz>MZ203u)$UqjH'*23_Jx>94 y=#!<)12'Yq+HU/+$)Z((E*h$)2/o)1-shRW7n>Uyx+U>IXzaST -'Z
-\#*50Xz
.ends iob_obc_drv_xn
** End of subcircuit definition.
************************************
** Library name: rnr_iob
** Cell name: iob_obc_drv_xp1
** View name: schematic
************************************
.subckt iob_obc_drv_xp1 io loc_vcco opp
.prot FREELIB
7] EP7cv:M$I$,T/q\>Aw7%v%C-A[M#tuM0'w);3:dah5!RI:ra:ZbyWR%ah$rZ((9e yx+3>IXf/_Jx)IV2'Og;-/B))<#OZK0*P!-IP9[![M\(c6
BM8.'v 6
.ends iob_obc_drv_xp1
** End of subcircuit definition.
************************************
** Library name: rnr_iob
** Cell name: iob_obc_drv_xp
** View name: schematic
************************************
.subckt iob_obc_drv_xp io loc_vcco opp
.prot FREELIB
7O$'P7cv:M$I$,T/q\>Aw7%v%C-A[M#tuM0'w);3:dah5!RI:ra:ZbyWR%ah$rZ((9e yx+3>IXf/_Jx)IV2'Og;-/B))<#OZK0*P!-IP9[![M\(c6
eI7EJW!MXd6.#=0KDp[STWFM>G<Sgv:]md/%TOmUX4y=-xP:Xlyx+Ue94 y=#!<)12'Yq+HU/+$)Z((EJ+074d%%a:ZjV4:3gA/_Jxc:V28Ogv+)%0
Zr\t;M70
.ends iob_obc_drv_xp
** End of subcircuit definition.
************************************
** Library name: rnr_iob
** Cell name: iob_obc_drv_w
** View name: schematic
************************************
.subckt iob_obc_drv_w io loc_vcco opp opp_del
.prot FREELIB
7O$'P7cv:M$I.Y<=:r.A.+g/09id[69/%MXI>MZ203u)$UqpcEVS$,q+H'H2\Yqp:00*P74;-/B))<#O<)1-9<RW7n> yx+3>IXfaSZ((E%S07\d%M[*5[
4t3(12HM#v2]XlwS/Y%K.23MgS6K>d$.kv<x.fsj#M-[%-0h#=-/Bj*7$;-[XM/_JW7%a:ZjV4:30*P!54P9e![Yq+HU/+$)2/<)1-5hRW+n>d8_-Q
H0[I:MsQ
.ends iob_obc_drv_w
** End of subcircuit definition.
************************************
** Library name: rnr_iob
** Cell name: iob_obc_drv_s
** View name: schematic
************************************
.subckt iob_obc_drv_s io loc_gnd loc_vcco opn opn_del opp opp_del
.prot FREELIB
7=12HM#v2=XlwS/d+%XlwS/d+%Xz>MZ203u)$UqjH'*23_Jx>94 y=#!<)12'Yq+HU/+$)Z((E*h$)2/o)1-shRW7n>Uyx+U>IXzaST -'Z
F>#S+:w.2W.\sO*I23mGsz=p23mGsz=p28\tk mE)S7x(We%T$,Q+h:xmv_3wrBA:$)d((eUs074k-/bT774D%%A:zJv4:3Ga/_jXC:v28oGV+)%0
'\*2(98d$M*tq%2l$,T/q\>Aw7%v%C-A[M#tuM0'w);3:dah5!RI:ra:ZbyW+3aY$rD(394Uyx#Oo)1-shRW7ba:Z$R4:3gAV_Jxm:V2'OgK-/Bj)<# ZK.zyb8
o2'x7W7tT29ID[69/%mxLWs/y%k.26\tk mE)S7x(3'b+)7%((e%V$#4()94 Y=#!<)12'yQ+hu/+$)z((ej+074D%%A:zJv4:3Ga/_jXC:v28oGV+)%0
Zr\t;M70
.ends iob_obc_drv_s
** End of subcircuit definition.
************************************
** Library name: rnr_iob
** Cell name: iob_obc_drv_e
** View name: schematic
************************************
.subckt iob_obc_drv_e io loc_gnd loc_vcco opn opn_del opp opp_del
.prot FREELIB
7=12HM#v2=XlwS/d+%XlwS/d+%Xz>MZ203u)$UqjH'*23_Jx>94 y=#!<)12'Yq+HU/+$)Z((E*h$)2/o)1-shRW7n>Uyx+U>IXzaST -'Z
F>#S+:w.2W.\sO*I23mGsz=p23mGsz=p28\tk mE)S7x(We%T$,Q+h:xmv_3wrBA:$)d((eUs074k-/bT774D%%A:zJv4:3Ga/_jXC:v28oGV+)%0
'.-W!MXd6.#=0KDp[STWFM>G<Sgv:]md/%TOmUX4y=-xP:Xlyx+Ue94 y=#!<)12'Yq+HU/+$)Z((EJ+074d%%a:ZjV4:3gA/_Jxc:V28Ogv+)%0
'\*2(98d$M*tq%2l$,T/q\>Aw7%v%C-A[M#tuM0'w);3:dah5!RI:ra:ZbyWR%ah$rZ((9e yx+3>IXf/_Jx)IV2'Og;-/B))<#OZK0*P!-IP9[![M\(c6
BM8.'v 6
.ends iob_obc_drv_e
** End of subcircuit definition.
************************************
** Library name: rnr_iob
** Cell name: iob_obc_drv_d
** View name: schematic
************************************
.subckt iob_obc_drv_d io loc_gnd loc_vcco opn opn_del opp opp_del
.prot FREELIB
7O['P7cv:M$z.Y<=:r.A.O\;:r.A.O\;:=md/%TOmUX4yI+Uw9i*P!VW+3aj$rD((94Uy=#Oo)1-shRW7ba:ZI3W7n> yx+3>IXfaSZ((E%S07\d%M[*5[
4 (98d$M* :r.A.O\;:r.A.O\;:=md/%TOmUX4yI+Uw9i*P!VW+3aj$rD((94Uy=#Oo)1-shRW7ba:ZI3W7n> yx+3>IXfaSZ((E%S07\d%M[*5[
4tc98d$M*t:r.A.+g/09id[69/%MXI>MZ203u)$UqhH'*23_JxcSXz'_;WR%ah$rZ((9e yx+3>IXf/_Jx)IV2'Og;-/B))<#OZK0*P!-IP9[![M\(c6
eO6%JW!MXd6./;9rXlwS/Y%K.23MgS6K>d$.kv<x.fsj#M-2Bj(7%((E%v$#4(m94 y=#!<)12'Yq+HU/+$)Z((EJ+074d%%a:ZjV4:3gA/_Jxc:V28Ogv+)%0
Zr\t;M70
.ends iob_obc_drv_d
** End of subcircuit definition.
************************************
** Library name: rnr_iob
** Cell name: iob_obc_drv_c
** View name: schematic
************************************
.subckt iob_obc_drv_c io loc_gnd loc_vcco opn opn_del opp opp_del
.prot FREELIB
7O['P7cv:M$z.Y<=:r.A.O\;:r.A.O\;:=md/%TOmUX4y=VxP:Xlyx+I:=e*57$;-/XM/_3W7%a:ZjV4:30*P!up:3gAV_Jxm:V2'OgK-/Bj)<# ZK.zyb8
o+/x7W7tT+9ID[62 O9ID[62 O9[oW9SV7uU2,_3ihi/23_jX>9[FYB#!O)12\9QP:3p*p!;ip9EuYX+J39E![yQ+hu/+$)2/<)1-5Hrw+N>D8_-q
7]%2HM#v2]XlwS/Y%K.23MgS6K>d$.kv<x.fsj#M-[%-0h#=-/Bj*7\O-UXMV_3WRba:$)D((EuS074K-/BY0<#OZKP*P!;IP9e![9q+H'/+$#2/0=ajL
)KT /x7W7tT2cp(37%V%c-a[m#=0kdP[stw2o.ujm43M9C*7B+4>9I*p!-L:=E*S7$;-[xm/_jw7%A:zJv4:30*p!54p9E![yQ+hu/+$)2/<)1-5Hrw+N>D8_-q
H0[I:MsQ
.ends iob_obc_drv_c
** End of subcircuit definition.
************************************
** Library name: rnr_iob
** Cell name: iob_obc_drv_b
** View name: schematic
************************************
.subckt iob_obc_drv_b opn opn_del opp opp_del io loc_gnd loc_vcco
.prot FREELIB
7=12HM#v2=XlwS/d+%XlwS/d+%Xz>MZ203u)$Uqp>EVS$,q+H:Xz'_VWR%a:$rZ(39e yx+3>IXf/_Jxw[XfaSD((EuS074d%ba:ZbV4:=gAw#qUy
3MZjX##09.i86d)f9ID[62 O9ID[62 O9[oW9SV7uU2,_3ihi/23_jX>9[FYH#!O)12\9QP:3p*p!;ip9EuYX+J39E![yQ+hu/+$)2/<)1-5Hrw+N>D8_-q
7]%2HM#v2]XlwS/Y%K.23MgS6K>d$.kv<x.fsj#M-[%-0h#=-/Bj*7\O-$XMV_3WRba:$)D((EuS074K-/BY0<#OZKP*P!;IP9e![9q+H'/+$#2/0=ajL
)KT /x7W7tT2cp(37%V%c-a[m#=0kdP[stw2o.ujm43M9C*7B+4>9I*p!-L:=E*(7$;-[xm/_jw7%A:zJv4:30*p!54p9E![yQ+hu/+$)2/<)1-5Hrw+N>D8_-q
H0[I:MsQ
.ends iob_obc_drv_b
** End of subcircuit definition.
************************************
** Library name: rnr_iob
** Cell name: iob_obc_drv_a
** View name: schematic
************************************
.subckt iob_obc_drv_a opn opn_del opp opp_del io loc_gnd loc_vcco
.prot FREELIB
7=/2HM#v2=XlwS/d+%XlwS/d+%Xz>MZ203u)$Uqp>EVS$,q+H:Xz'_yWR%ah$rZ(39e yx+3>IXf/_Jxw[XfaSD((EuS074d%ba:ZbV4:=gAw#qUy
3MZjX##09.i86d)f9ID[62 O9ID[62 O9[oW9SV7uU2,_3ihi/23_jX>9[FY>#!O) 2\9QP:3p*p!;ip9EuYX+J39E![yQ+hu/+$)2/<)1-5Hrw+N>D8_-q
7O$'P7cv:M$I.Y<=:r.A.+g/09id[69/%MXI>MZ203u)$UqpcEVS$,q+H'H28)qpm94 y=#!<)12'Yq+HU/+$)Z((EJ+074d%%a:ZjV4:3gA/_Jxc:V28Ogv+)%0
'.RW!MXd6.#=0KDp[STWFM>G<Sgv:]md/%TOmUX4y=-xP:Xlyx+Ue9[fy=;WR%ah$rZ((9e yx+3>IXf/_Jx)IV2'Og;-/B))<#OZK0*P!-IP9[![M\(c6
BM8.'v 6
.ends iob_obc_drv_a
** End of subcircuit definition.
************************************
** Library name: rnr_iob
** Cell name: iob_obc_drv_cz
** View name: schematic
************************************
.subckt iob_obc_drv_cz loc_gnd_drv opn_a opn_a_del opn_b opn_b_del opn_c
+opn_c_del opn_d opn_d_del opn_e opn_e_del opn_es opn_es_del
+opn_x<8> opn_x<7> opn_x<6> opn_x<5> opn_x<4> opn_x<3> opn_x<2>
+opn_x<1> opn_x<0> opn_y opp_a opp_a_del opp_b opp_b_del opp_bs
+opp_bs_del opp_c opp_c_del opp_d opp_d_del opp_e opp_e_del opp_es
+opp_es_del opp_x<13> opp_x<12> opp_x<11> opp_x<10> opp_x<9>
+opp_x<8> opp_x<7> opp_x<6> opp_x<5> opp_x<4> opp_x<3> opp_x<2>
+opp_x<1> opp_x<0> opp_y pad vcco
.prot FREELIB
7WP3<d\W25P23MgSZ=PGV89W6K>d$M* q<Xd6./::W./.M0/q%6p.28
o!%6P'wYe:]= $,t/QN[ .y'y:m$Z.)MLv98Dx6tF%cp3<64 Y
38 :+41W+xiGy#=0kd!8y/;;\xD6#/o_$)2hm0s0->gv89s7=z
Fhy'y7Hjq$.[;:R.a.o\;Q%6P$m* Q3ry%7CV[c./[6d56cEZl
)C;;\Ec0P#T'%xLWs/D+%d :+#V2=dF#<1w!m3gW-GsOy-g'#8
o!%6P'wve:]= $,t/QN[ .y'y:m$Z.)Miv98Dx6tF%cp3<64 Y
38 :+41M+xiGy#=0kd!8y/;;\xD6#/o_u)2hm0s0->gv89s7=z
Fhy'y7H%q$.[;:R.a.o\;Q%6P$m* Q3rJ%7CV[c./[6d56cEZl
)C;;\Ec7P#T'%xLWs/D+%d :+#V2=dF#=1w!m3gW-GsOy-g'#8
o!%6P'wje:]= $,t/QN[ .y'y:m$Z.)M+v98Dx6tF%cp3<64 Y
38 :+*[3Hfq$.[;:\>aW7tT2cEc7X1w!m3gW-GsOy-g'.3q
7WP3<.:p_S)261DW6K>d$M*tq3RE%7cv[C./[6D56CeI7[
4#oY-I =mjV9$;V79/%MXd6./O_S)2HM0S0->GV89S7] 0
'4D56]_h#$1W25P2<Sgv:M$I.)mjV98dX6Tf%CP3<64t36
e7V89tT[R+%7*$o9-A[M#v2]Df#$1W!M3Gw-gSoY-G'.3Q
7WP3<.:p_:)261DW6K>d$M*tq3R+%7cv[C./[6D56CeI7[
4#oY-I =m3V9$;V79/%MXd6./O_:)2HM0S0->GV89S7] 0
'4D56]_h#b1W25P2<Sgv:M$I.)mUV98dX6Tf%CP3<64t36
e7V89tT[Rh%7*$o9-A[M#v2]Df#=1W!M3Gw-gSoY-G'.3Q
7WP3<.:p_/)261DW6K>d$M*tq3R:%7cv[C./[6D56CeI7[
4#oY-I W;E:]= $+g/09.I66413U)2HM0S0->GV89S7]Z
Fhy'y2JrJ%7*$O9-a[m#V2]dF#=-e:w./.m0/Q%6P.)*q
7WP3<.:13+XIgY#Y%K.2w.*S7h h%7cv[C./[6D56CeIL
)C;;\$\#X1w25p2<sGV:m$i.)M3v98Dx6tF%cp3<64TY
38 :+xw25p2<sGV:m$i.0zw0]$gt9/;9Rx7W-/V[kd :+/mY
38 :+*+:]= $,t/QN[ .y'y:\>aW7tT+c2u$m* Q*0gv0%w0]$gx9#V2]d//6d)f6
:7w-/v[KD :+/Ky
38 :+<+:]= $,t/QN[ .y'y:\>aW7tT+c22W.\s9cp(37tT2c22W.*s9cp(3[
a#0-DdXS/;;\D(L
)C;;\p:$.[;:R.a.o\;Q%6P$+G/09.i86dw0][gv6d)f9.i66dw0]$gv6d)f6
:7w-/v[KD :+/;y
38 :+G+:]= $,t/QN[ .y'y:\>aW7tT+c>2W.\s%cp(37tT2c>2W.*s%cp(3[
a#0-DdXS/;;\DAL
)C;;\3:$m* Q-xD6#/FQ%2L$m*TQ-xD6./FQ%2L$.[;:R.a.o\;Q%6P$+G/06
:7w-/v[KD :+/fy
38 :+[+:m$Z.1#V2=d;.y<=:m$i.1#V2]d;.y<=:]= $,t/QN[ .y'y:\>aW[
a#0-DdXS/;;\D;L
!$ 2y.'l
.ends iob_obc_drv_cz
** End of subcircuit definition.
************************************
** Library name: rnr_spice_sanjay
** Cell name: out_load_vref
** View name: schematic
************************************
.subckt out_load_vref pad pad_int vccaux vcco
.prot FREELIB
7O['7x#Y<bXIgY/#+xXp/9#Y<bXz>MZ203%+$UqpH/V23_Jxc2Xz'_yWR%a:$rZ(36
eO8%3p:\0U$.[;qW['$+ZK:\0U$#kv<x.f5<#M-[B:07%((E%Y$\4(c9[fy>#!o)12\9qpy
3MZj=-w6B0261ds!=72<9zw6B028\tk mEJ07x(3e1H$,QPh'xZ'_-wr%A577$k-[z
F>#SPM9-u/7*$Oc8Zj79k<9-u/7\90B7D'BrwI) -p<#=-/bJ97\o-sxmv_jwrBAHl
)KT ixiGy/#+XxP[stw6k>D$+G/09$oW9SV7uU2,_3uhi/23_jXCsxo'_-wr%A:$Rz((6
ez)7*$o9-A[1$O:=2'sx5W6b028\TK Me)s7X(wE%t$,q+H:Xz'_3h:0P*P7$K-[Z
F>#S+:\0u$+zk:\0u$+zk:=MD/%toMux4Yi+uW9I*p!vwr%A:$Rz((6
eO8%]W25PGH#sW6b02<9ZW6b028\TK Me)s7X(wE%t$,q+H:XO'_-WR%a:$rZ((6
e7\./;+C,(T.JW6b02<9ZW6%P2<YDW6%P2<9ZW6b02<Sgv:=2')b-W6b02<9ZW6b02<Sgv:\P $+ZKy
88Dx6$TQ%[gM0<TY
3MZjX[w+*7s5B#y<BxP/9#y<BxZ>mz203%+$uQJh2f+$,Q+h:xZ'_-wr%AH$Rz(39E YX+3>ixF/_jXpsv2'oG;-/b))<#ozk0*p!;up6
eO8%J$qjXzT%VUc9-U/79K<9-U/7\90b7d'bRWi)u-*j#=-/BS$#4(c94 y=#!<) 2'Yq+HU/+$)Z((EVv074d%%a:ZjV4:3gA/_Jxm'V0
'\\2c5XzT%VUc9-U/79K<9-U/7\90b7d'bRWi)*-9ERWF)1-)7\O-SXMV_3WRbah$)D((EuS074K-/B+*<#OZKP*P!;IP9e![9q+HU%+L
)K  [=280SiC'xP/9#y<BxP/9# Um0'W)-4:DATz$]4:RA:zH# 7)/2\yQP:00*774;-/b))<#o<)1-0>rw7N> YX+3>ixFAsz((eUJ0[
49+x 280sIc'Xp/9#Y<bXp/9# uM0'w)-4:daYZI5WF)1-s7\O-:XMV_3WRbah$)D((EuS074K-/B+*<#OZKP*P!;IP9e![9q+HU%+L
)K  'xZt%vuC9-u/79k<9-u/7\90B7D'BrwI)j-($#=-/b)$#4(>94 Y=#!<) 2'yQ+hu/+$)z((evV074D%%A:zJv4:3Ga/_jXM'v0
'\\2m9[(Jh-U:\0U$+ZK:\0U$#kv<x.f5<#M-2Bt$,q+HUXz'_5WR%ah$rZ(39e yx+3>IXf/_JxPSV2'Og;-/B))<#OZK0*P!;UP6
eO8%VW+*7S5b#Y<bXp/9#Y<bXz>MZ203%+$UqhH$Xlyx+3:=e*7>#!o) 2\9qp:3P*P!;IP9eUyx+4eIXfaSD((EuS074d%ba:Zj-4y
3MZj<# 9X/J579k<9-u/79k<9[oW9SV7'v2,_5XW2xLYX+3:=E*97$;-[xm/_3w7%A:zJv4:30*p!rLp9E![yQ+hu/+$)2/<)1-SBrq
7O['97\) :%j$+ZK:\0U$+ZK:=md/%TOcIX4y$+j:ra:Zj# 7)J2\Yqp:00*774;-/B))<#O<)1-0>RW7n> yx+3>IXfaSZ((Euj0[
49+x*280sIc'Xp/9#Y<bXp/9# uM0'w)-4:daYZI#=-/B)$#4(3/XMV_3WRbah$)D((EuS074K-/B+*<#OZKP*P!;IP9e![9q+HU%+L
)K  sxZt%vuC9-u/79k<9-u/7\90B7D'BrwI)j-($#=-/b)$#4(3/xmv_3wrBAH$)d((eUs074k-/b+*<#ozkp*p!;ip9E![9Q+hu%+l
)KT /=280SiC'xP[stw6k>D$+G/09$oW9SV7'v2,_]X>iv23_jXCsxZ'_-wr%AH$Rz(39E YX+3>ixF/_jXpsv2'oG;-/b))<#ozk0*p!;up6
eO6%-$:=2')b-W6K>d$+g/09-A[M#tuM0'w)-4:daEZhR4:ra:ZbyW+3av$rD(394Uy=#Oo)1-shRW7ba:Z<y4:3gAV_Jxm:V2'OgK-/B)5<8
oU]7HG7\) :%J$+G/09-a[m#y%k.26\tk mEJ07x(#e/+07%((e%V$#4(>94 Y=#!<) 2'yQ+hu/+$)z((evV074D%%A:zJv4:3Ga/_jXM'v0
'\*2(5D\$#<2>'%2<Sgv:\>Aw79/%MXI>MZ203%+$UqIH/H23_JxcSXz'_-WR%ah$rZ(39e yx+3>IXf/_JxPSV2'Og;-/B))<#OZK0*P!;UP6
eO6%JW+*7S5b#Y%K.2<Sgv:\>Aw7*90b7d'bRWi)V-;E#=-/B)07\O-:XMV_3WRbah$)D((EuS074K-/B+*<#OZKP*P!;IP9e![9q+HU%+L
)C+:\0u$+zk:\0u$+zk:\0u$+zk:\0u$+zk:\0u$+zk:\0u$+zk:\0u$+zk:\0u$+zk:\0u$+zk:\0u$+zk:\0u$+zk:\0u$+G/09-a[m#y%k.2<sGVY
8-a[m#y%k.2<sGV:\>aW79/%mxP[stw6k>D$+G/09-a[m#y%k.2<sGV:\>aW79/%mz
$<sGV:\>aW79/%mxP[stw6k>D$+G/09-a[m#y%k.2<sGV:\>aW79/%mxP[stw+*7s5B8
_6k>D$4tFQm3a.y'yQkK0
:x# 9x/j57*$o96*9jJ9y
yU261ds!=7280S3(2x3Y=j+h/1:l
8-w+*7)p$# 9XU:97'(3/1-pXjq
%/XzT%VUc9-U/7g(mEJIL
!$ 2y.'l
.ends out_load_vref
** End of subcircuit definition.
************************************
** Library name: rnr_iob
** Cell name: iob_tlvsht1_25
** View name: schematic
************************************
.subckt iob_tlvsht1_25 A V Y1 Y1_vdd Y2 por_b
.prot FREELIB
7=X#769;o9=2<9ZW6b028\TK:da:ZbyWF)1-PI#!o)12\9q+y
3$2E=/yO%x;$+d;:\p $.KV<9C*p!rH:RA:zXUwr%A:$Rz((6
eI57PU:< 2<79W2O.UJM4UP9c*P!RWF) 2\Yq+:00*P[
4tm9oh$.T5q-Xp$+#tuM0'w)-4:da:Z<-WF)1-5h#!o)12\9q+y
3$H$23w8'xP$+#TUm0'W)-4:DA:z<#=-[xmv_jwrBA:l
)\u:<%2E=/yO%xP/9#y<BxZ>mz203%+$uQ3:RA:zBvw+3AJ$Rd(*[xm/_3q
7=u2<9ZW8[X#579K<9[Ow9sv7'V2,_JxP'Xlyx+U>94 yx#!<)10
'#3W8[X;$+ZK:\0U$#kv<x.f5<#M-UXlyx+U>9[fyb#!o)\h$rZ(36
BM8.'v 6
.ends iob_tlvsht1_25
** End of subcircuit definition.
************************************
** Library name: rnr_iob
** Cell name: iob_lvds_term_enable_aux
** View name: schematic
************************************
.subckt iob_lvds_term_enable_aux Term_Enable_0 Term_Enable_1 Term_Enable_2
+lvds<0> lvds_term_bit<0> lvds_term_bit<1> lvds_term_bit<2>
+lvds_term_ovrd por_b_vcc tstateb vcc Term_Enable_F0
+lvds_term_bit_F<0>
.prot FREELIB
7Wip39HS *6Os7%YobD'T8kS_')2<SgW+*7h7j# 9x h57s);OD(810=9C%26M'S[C-A[[
a#0-D'3+Z* [Dj0[
4#F\iUD6s);O 23+DKqx23>6m+V9-A[7\) $u280sp32X'T8kS9==/30/+:].3.-/Y%KZ
$hm0s R-ud%3sCiz
Fh,9=<Fd't8Ku:R- /6S);odc7P#y%kxZt%3PW9[(j>jw *6o.0\$[R2g77*V;c3g<sGq
$W./.%%Y<f7h.bRQ
7Wip39HS *6OP7%YobD'T8kSTh1Q$+g/:=2'*<# 9xHY$%<5uC2zg-%)qj126M'S[C-A[[
a#0-D'3+Z* [Dj0[
4#PS 280spc/XzT%y,:r- /6s);ODC5p#O!C[;8Y-Wi=ahZ<J+:r[*P!Jj(6
:z 4\d9Y0*77Xt-[B+Px#=2)1-PIJW2j8za0'K-[Z
Fh<Y4:R- /6S);od/h%Muv9IPv9/29yMgW+';:=2'*e#o!c[;8y-wI=AHz<j+Y
8IZYX++W/xZ 4\D9y0*77xT-[b+pX#=2)1-pijw2J8ZA0'k-[z
Fh<34:R- /6S);od/h%/[_/)23+dkQX23>6ty;%xZt%]4:38g81\;C9CZY=+4(/z
$3#Q+h/*:$#:#+N23/_3wI]AHz<j+:R$*p!jJ(9$\h#2);BAHl
)C43sxZt%3u>9[(jerwf\pu.%<5Uc_cpP#o!c[;8y-wI=AHz<j+:R[*p!jJ(6
:z 4\d9Y0*77Xt-[B+Px#=2)1-PIJW2j8za0'K-[Z
Fh<;3:R- /6S);od/h%M+v9IPv9/29yMgW+';:=2'7X3w7wdZG#du:D[*7!r+(6
:l8_Jx($128dc Z*6Uy=#M2) -0xJWF]a:Zxu+:]_78O<5<) 0
'4R3)9ipV9/29YmGX4s13+Xl<YZS *6O.M95o9[(J=JI:38G81\;c9czy=+4(/Z
$3#Q+h/*:$#:#+N23/_3wI]AHz<j+:R$*p!jJ(9$\h#2);BAHl
)C4M:xZt%33C9[(j=jP:R- /6S);odcpP#o!c[;8y-wI=AHz<j+:R[*p!jJ(6
:z 4\d9Y0*77Xt-[B+Px#=2)1-PIJW2j8za0'K-[Z
Fh<;4:=2'7BYw+*7HpH#=6%0gj0'9QH q$)Cs+5[ 57x -[b+pX#=+)1-pijq
$=_78O<5<) 2,.qpHI1:$,*((E1tP7*[!=g(:9qpy
38+*H#2<X='t-#=6%0cpP#=6%0gj0'9Q-8'#B1w+*7H5X#o!c[;8y;wI]AJ$,*((e1Tp[
atTW[!T8Z(39czyb#=+)1-PIJW+j8za0'K-[Z
Fh<-L:X0'G%<F:R- /wje:R- /6S);od/h%/[_/)280SPC:xFh6\$+%U2,.QuY
8IiYX++W/xi 4\D9y0*77x -'xL8_jX($128DC z*6uY=8
o!iUT$%z2'X2/$,9;<H1q$,9;<c7(:\/F!XrH%7\) [%V$)Cs+5[ S7xT-'xL6_jX($10
o.:#+n23/_3Wi=aj$,\((E1tP7\[!=g(:9qpy
38+SB#2<X='t-#=6%0cpP#=6%0gj0'9Q-8'#X1w+*7HSB#o!c[;8y;wI]AJ$,*((e1Tp[
atTW[!T8Z(39czyb#=+)1-PIJW+j8za0'K-[Z
-\#*50Xz
.ends iob_lvds_term_enable_aux
** End of subcircuit definition.
************************************
** Library name: rnr_iob
** Cell name: iob_lvds_stds_lvlsh
** View name: schematic
************************************
.subckt iob_lvds_stds_lvlsh cbit_diff15_vccaux cbit_diff15_vcco
+cbit_diff18_vccaux cbit_diff18_vcco cbit_ext_vccaux cbit_ext_vcco
+cbit_ldt_vccaux cbit_ldt_vcco lvds_m<6> lvds_m<5> lvds_m<4>
+lvds_m<3> lvds_m<2> lvds_m<1> por_b_vccaux por_b_vcco vccaux vcco
.prot FREELIB
7Wip39HSF%7G<Sgv:r- /6k1c+Xp[STW+*7hPh# 9x :s7gf!xDlV%/Y%K.0
o.T5q-Dp[STW!M3GJ,9Kax Gsj8
o!R-L///;!J_H069/%mxL<yzsUH/q$+G/09[(j=3P:=2'7=jw%-8'.yC[t[vg<sGVY
8$D:60s6k>D$4tFQXIP//SPQuU0
'4%YFb;GT)sS6K>d$,9;<CmC7p#Y%K.280sp(SXzT%3+w9>/H%/)7xDp[STQ
$].3.-/Y%K.2HM0S r-UD%3SmUZ
Fh,9=<Fdo969/%mxL<yzsUHjq$+G/09[(jeUw+*7e*7\) (f26m's[c-a[m8
_!m3gj,9kAX gSJ8
o!R-L///;!J_H*69/%mxL<yzsUHUq$+G/09[(j<3w+*7+57GF!Xd hD:PEc-a[m8
_2m6gx69/%mx7W-/2f\0>j=/3M6
e73+%KaCm+.+g/09ipV9/9_I)2<Sgv:=2'0I# 9xVv$#<2P2XIw8/fq\>Aw[
a#0-D'3+Z* [D)s[
4#F\iUD6%; C-A[1$O:r- /6k1c+Xp[S[!79[(J=Jh:=2'(x#/[W7G3YsS6K>;\)8
_2m6gx69/%54F$4tFQXIP//SPQ'v0
'4%YFb;GV4:[3ID;\)#=6%0G>WVE:\>Agr4W+*7t07\) $J2[-c2q%8\ =RS6K>;\)8
_2m6gx69/%54F$4tFQXIP//SPQ'v0
'4%YFb;G>$/$R3Xl<YZSuhJQ$+g/'0e280shm9[(J=J+:=2'7x3W2M6GX69/%54fL
TCV[c7L<9h23c%+l
)C=6R0>.yC[t[hgGR4wf\pu.\M3v9-a[1$o:=2'*=# 9XhJ$s0# cp7 D3LQ\>aGR4q
$].3.-/Y%K=M'7cv[C7l<9H23C%+L
)C=6R0>.042Q\>aGR4wf\pu.\MPv9-a[1$o:=2'*i# 9XhV$s0# c2Fj69/%54Fl
T*V;c3g<sG$r3x7W-/2f\0>j=/up6
e73+%KaCm+.1$O:r- /6k1P+Xp[S[!79[(J=-U:=2'7=yW+*7h5j#t0YD/.+g/'0e0
o4Tfqxip//spq'V0
Zr\t;M70
.ends iob_lvds_stds_lvlsh
** End of subcircuit definition.
************************************
** Library name: XI_MacrosLib
** Cell name: xi_tinv_33xxx
** View name: schematic
************************************
.subckt xi_tinv_33xxx A Y psup nsup
.prot FREELIB
H]=3g\#M+)123#q+:=_78O<5<) 2,.q+:r$*P7*[!=g(:9qpy
3[2E7[w+B4i$#z!29[oW9SV7uU2,_x :RAL87\o-=_78o<5<94 YX#!<)10
'.#::5XI/r*W2b4I$.kv<x.fsj#M-d$23_%t:=e*6dc Z*6U$rD((94Uyx8
Xr=$3W%8
.ends xi_tinv_33xxx
** End of subcircuit definition.
************************************
** Library name: XI_MacrosLib
** Cell name: xi_invxxx
** View name: schematic
************************************
.subckt xi_invxxx A Y psup nsup
.prot FREELIB
H]=3g\#M2)123.q+:]_78O<5<) 2,#q+:r[*P7\[!=g(:9qpy
3$H$2#$:]0m67*kr]xi>mzwI)Ci$,Q=29[FY.:#+N23/7$;-! 2\9QPY
3[H$2#$:=0m67\kr]xZ>mzwI)CZ$,Q=+9[FY#:#+N23/7$;-! 2\9QPY
e4Z68t2Y
.ends xi_invxxx
** End of subcircuit definition.
************************************
** Library name: rnr_iob
** Cell name: iob_lvds_lvlshf
** View name: schematic
************************************
.subckt iob_lvds_lvlshf in loc_gnd loc_vcc loc_vdd out por_b
.prot FREELIB
7O$'77\) C1hPI#=0KD!8Y#=0KDp[S#=0KDp[S#tuM0'w)-4:dahP7%((E%S$rD((94Uyx8
oU]7:$#<2E[xiW8/F:R.a.+G/:R.a.+G/:]MD/%toCix4Y=++:RA:zBvwr%A:$Rz((6
eIP7\) CHS$#<2e[XlwS/Y%KXlwS/Y%KXI>MZ203%+$Uqp(E/+$,q+H'/28)qU:0P*==#!<) 0
'.-U:M4'$4\f:=2'.>VWFM>G<SgW2O.UJM4UP9c*7x+IP9i*P!-I:=e*57$;-! 2\9qpy
3$J$#<2E[x787\) ch:$,t/Q\>a$.KV<X.F5<#m-$bHS7%((e%s$Rd((94uYX8
o2'1e$#<2Qs1280SiE9ID[69/%9ID[69/%9$oW9SV7'v2,_UX3uxLYX+u>94 YX#!<)10
'.uW+*7G7xVW+*7S*7%v%C-A[7%v%C-A[7*90b7d'bRWi)/-s>#=-/Bj)7$;-/XM/_JQ
7]J280sl)9[(J>3WFM>G<SgWFM>G<SgW2O.UJM4UP9c*)!-p:ra:ZbVWR%a:$rZ((6
eI07\) :H2H#0W+*7v97%v%C-A[7*90b7d'bRWi)/-5=#=-/Bj)7$;-/XM/_JQ
7=1280sIe98zX7%v%CgzV7%v%CgzV7\90b7d'bRWi) +Z$3WF)1-5h#!o)12\9q+y
38)p7C :w[/$,t/Q\p $,t/QN[ $)Cs!=-F')#m2)/-*Xjwf]A:zXU+:]_78o<5<) 0
oU\(cE/:P7% -/B:(x# TW[!T8Z(36
ezs7T! 9[(J>3WFM>Ga#DWFM>Ga#DW+O.UJM4UP9c*P!;l:ra:Zb5WR%a:$rZ((6
eO8%JW+*7v77c :r.A.O\;:r.A.O\;:=md/%TOcIX4yb+h#9i*P!-I:=e*07$;-/XM/_JQ
7O['77\) S 2H##=0KD!8Y#=0KD!8Y# uM0'w)-4:dajZI#=-/Bj)7$;-/XM/_JQ
7=*2wrsW+*7G7xVWFM>Ga#DWFM>Ga#DW+O.UJM4UP9c*7j+4:ra:ZbVWR%a:$rZ((6
ez)7T! 9[(JhyW+*7GP=Jj:r.A.O\;:=md/%TOcIX4yj+439i*P!-I:0P*P7$K-/Z
F8=YL:=2'*=##+9ID[62 O9ID[62 O9[oW9SV7'v2,_jXp9I*p!-i:=E*;7$;-/xm/_jq
7=J280sS3//2H##=0KD!8Y#=0KD!8Y# uM0'w)-4:davZh3WF)1-5h#!o)12\9q+y
3[+$#<2>sxZt%YP:R.a.o\;:R.a.o\;:=MD/%toCix4YX+4:RA:zBvwr%A:$Rz((6
BM8.'v 6
.ends iob_lvds_lvlshf
** End of subcircuit definition.
************************************
** Library name: rnr_iob
** Cell name: iob_lvds_lvlshf_data
** View name: schematic
************************************
.subckt iob_lvds_lvlshf_data in loc_gnd loc_vcc loc_vdd out por_b
.prot FREELIB
7=V23MgSZ=P23MgSZ=P23MgSZ=P23MgSZ=P28\TK Mej07X(3E/h$,q+H'/2\Yq+:00*P[
4 >9.MJ7\) :H280sS(2*23MgSZ=P28\TK Mej07X(mEVh$,q+H'/2\Yq+:00*P[
4 c9[(J6]+:W[23MgSZ=P23MgSZ=P28\TK Mej07X(eE/h$,q+H'/2\Yq+:00*P[
4 3SH280sl398z$,T/qn[ $,T/qn[ $#kv<x.f5<#M-/B+$,q+H'/28)q,:0P*P7$K-/Z
F8i#VrXxZt%/,(9ID[62 O9ID[62 O9[oW9SV7'v2,_33hixLYX+u>94 YX#!<)10
'\\2(9[(J>3W!=XlwS/d+%XlwS/d+%Xz>MZ203%+$UqUH2F23_Jxc:Xz'_RWR%a:$rZ((6
eO8%3W+*7v77c :r.A.O\;:r.A.O\;:=md/%TOcIX4yb+j:ra:ZbVWR%a:$rZ((6
ez97\) CF:$#<2>SXlwS/d+%XlwS/d+%Xz>MZ203%+$Uq+HUH23_Jxc:XMV_JWRba:L
)CPE/x787C [9ID[69;O9ID[62 O9E7.4\y73E2,.Qihs1:$,*((e1Tp7*[!=G(:9QPY
8CZYB+i(/xL8_jX($128DC z*6uY=8
o+/xZt%vL:w[/$,t/QN[ $,t/QN[ $#KV<X.F5<#m-[v-9=#=-/bJ)7$;-/xm/_jq