** End of subcircuit definition.
************************************
** Library name: rnr_spice_sanjay
** Cell name: out_load
** View name: schematic
************************************
.subckt out_load cbnet<38> cbnet<37> cbnet<36> cbnet<35> cbnet<34>
+cbnet<33> cbnet<32> cbnet<31> cbnet<30> cbnet<29> cbnet<28>
+cbnet<27> cbnet<26> cbnet<25> cbnet<24> cbnet<23> cbnet<22>
+cbnet<21> cbnet<20> cbnet<19> cbnet<18> cbnet<17> cbnet<16>
+cbnet<15> cbnet<14> cbnet<13> cbnet<12> cbnet<11> cbnet<10>
+cbnet<9> cbnet<8> cbnet<7> cbnet<6> cbnet<5> cbnet<4> cbnet<3>
+cbnet<2> cbnet<1> cbnet<0> cnnd<13> cnnd<12> cnnd<11> cnnd<10>
+cnnd<9> cnnd<8> cnnd<7> cnnd<6> cnnd<5> cnnd<4> cnnd<3> cnnd<2>
+cnnd<1> cnnd<0> cnpd<19> cnpd<18> cnpd<17> cnpd<16> cnpd<15>
+cnpd<14> cnpd<13> cnpd<12> cnpd<11> cnpd<10> cnpd<9> cnpd<8>
+cnpd<7> cnpd<6> cnpd<5> cnpd<4> cnpd<3> cnpd<2> cnpd<1> cnpd<0>
+pad tsb_s<0> vccaux vcco
.prot FREELIB
7WJ2[-\) huv%7gf+*7CsI1W%-[(JW;hV9>/80s1mI)2[-\) huS%7gf+*7Csj1Q
$K3zT%m3c+XAX#<2_U Q$S0 9xR)Pp#/[=2'#b]E:K3zT%mUe+XAX#<2_'*QL
TGF+*7c5$1w%-[(jw-4v9>/80S1C:)2[-\) H%)%7GF+*7c5B1w%-[(jw-Pv6
:AX#<2_'1Q$S0 9xRh;p#/[=2'#=yE:K3zT%mpw+XAX#<2_[JQ$S0 9xRh0p8
_%-[(jw3iv9>/80S13u)2[-\) H J%7GF+*7c7=1w%-[(jw3+v9>/80S1#+z
$[-\) Hhq$s0 9XrT%7GF+*7c9P#/[=2'#<1w%-[(jwve:k3Zt%M3v9>/80S1C+z
$[-\) H q$s0 9Xr:%79k<9-a[1$o:\>aW79k<9-a[1$o:\>aW7' ;c$;v6C  97ux6z1(+z
$[#\;_[Uq$s\ OH J%7G +%rH7P#/+=pc7X1w%=[ #e1w%=[ #>1w%=[ #i1q
$K[zVW5E:K[zVWRE:K[zVWVE:K[zVW;E:K[zVW-E:K[zVW3E:K[zVWJE:K[IVW3,V6
:A8.D13S)2[#*;_[*Q$S\toh Y%7g 2%Rh0p#/+]PC7h1W%=$ #=;E:K[IVW3UV6
:A8.D13[)2[#*;_[1Q$S\tohFQ$S\tohHQ$S\toh*Q$S\tohJQ$S\tohVQ$S\toh/QL
TG 2%r)%7G 2%rJ%7G 2%rH%7G 2%r:%7CV[c.mj,tD!kduh\/#+]z
3p7' ;c$;v6C  9$;v7'()u1ol
sjw;=6g61ds!=72<9zw%)U-9.8
o+:x388/T'%d78%#y<BxP/9#y<BxZ>mz203U)$uQJh'*23_jX>9[FY=5wr%A:$Rz(36
BM8.'v 6
.ends out_load
