** End of subcircuit definition.
************************************
** Library name: rnr_spice_sanjay
** Cell name: rcload_deloutp_b
** View name: schematic
************************************
.subckt rcload_deloutp_b in out
.prot FREELIB
%/X7879K<9>*;!R[y
k 2WRSw6B02[_]XpJz
3p7C :m4'$8QP3uz
-\#*50Xz
.ends rcload_deloutp_b
