** End of subcircuit definition.
************************************
** Library name: rnr_spice_sanjay
** Cell name: rcload_normnx
** View name: schematic
************************************
.subckt rcload_normnx in out
.prot FREELIB
7d 280sp39.MJ7kUiW6($Uq+HUV23_;W<)1-s<#9%]a  \gtu'XO,8q;TOc3>b#9;) 0
o\g(36
e4P7c :=2'7=#9md83T7X((E v$,qU(90*P!3l:O>IyY:9%]m)$\X5-%_O,8k3:O6*7[
a9%) 0
Zr\t;M70
.ends rcload_normnx
