** End of subcircuit definition.
************************************
** Library name: rnr_spice_sanjay
** Cell name: rcload_loutn_y
** View name: schematic
************************************
.subckt rcload_loutn_y in out
.prot FREELIB
%/X7879K<9>*)!y[y
k 2WRSw6B02[_vXEJz
3p7C :m4'$8Q3)6
BM8.'v 6
.ends rcload_loutn_y
