************************************
** Library name: rnr_spice_sanjay
** Cell name: rcload
** View name: schematic
************************************
.subckt rcload in out
.prot FREELIB
H]=3g\#/FM= y=:W;r.;V_3Q
%[Xd\%#Y<bXAyS%v'%Z
ap7C :\0u$sQ/fm= l
8jw!=xD\%#5-yIDGy8
Xr=$3W%8
.ends rcload
