** End of subcircuit definition.
************************************
** Library name: rnr_spice_sanjay
** Cell name: rcload_loutn_x
** View name: schematic
************************************
.subckt rcload_loutn_x in out
.prot FREELIB
%/X7879K<9>*)!5[y
k 2WRSw6B02[_vX)Jz
3p7C :m4'$8Q3M6
BM8.'v 6
.ends rcload_loutn_x
