** End of subcircuit definition.
************************************
** Library name: rnr_spice_sanjay
** Cell name: rcload_normp_a
** View name: schematic
************************************
.subckt rcload_normp_a in out
.prot FREELIB
%/X7879K<9>*sd8
/39.mj79k<9>*SD8
5(98Z$m$2:yA)5[
+!+]6dJ[
.ends rcload_normp_a
