** End of subcircuit definition.
************************************
** Library name: rnr_spice_sanjay
** Cell name: rcload_deloutp_a
** View name: schematic
************************************
.subckt rcload_deloutp_a in out
.prot FREELIB
%/X7879K<9>*7x:Q
%[Xd\%#Y<bXAy=J[y
y12h##VrXx3Y=3+Y
e4Z68t2Y
.ends rcload_deloutp_a
