** End of subcircuit definition.
************************************
** Library name: rnr_spice_sanjay
** Cell name: rcload_normp_b
** View name: schematic
************************************
.subckt rcload_normp_b in out
.prot FREELIB
%/X7879K<9>*5!V[y
k 2WRSw6B02[_-X>Jz
3p7C :m4'$8Qup6
BM8.'v 6
.ends rcload_normp_b
