** End of subcircuit definition.
************************************
** Library name: rnr_spice_sanjay
** Cell name: rcload_normp_d
** View name: schematic
************************************
.subckt rcload_normp_d in out
.prot FREELIB
%/X7879K<9>*5d8
/39.mj79k<9>*5D8
5(98Z$m$2:yAJ5[
+!+]6dJ[
.ends rcload_normp_d
