** End of subcircuit definition.
************************************
** Library name: rnr_spice_sanjay
** Cell name: io_cust_input
** View name: schematic
************************************
.subckt receiver in1_int in2_int net67 vcco vccaux lvds_out cmos_out sstl_hstl_out
+ input_optinv_sel in_to_ff cbnet1<39> cbnet1<38> cbnet1<37> cbnet1<36> cbnet1<35>
+ cbnet1<34> cbnet1<33> cbnet1<32> cbnet1<31> cbnet1<30> cbnet1<29> cbnet1<28> cbnet1<27>
+ cbnet1<26> cbnet1<25> cbnet1<24> cbnet1<23> cbnet1<22> cbnet1<21>
+ cbnet1<20> cbnet1<19> cbnet1<18> cbnet1<17> cbnet1<16> cbnet1<15>
+ cbnet1<14> cbnet1<13> cbnet1<12> cbnet1<11> cbnet1<10> cbnet1<9>
+ cbnet1<8> cbnet1<7> cbnet1<6> cbnet1<5> cbnet1<4> cbnet1<3>
+ cbnet1<2> cbnet1<1> cbnet1<0> cnnd1<13> cnnd1<12> cnnd1<11>
+ cnnd1<10> cnnd1<9> cnnd1<8> cnnd1<7> cnnd1<6> cnnd1<5> cnnd1<4>
+ cnnd1<3> cnnd1<2> cnnd1<1> cnnd1<0> cnpd1<19> cnpd1<18> cnpd1<17>
+ cnpd1<16> cnpd1<15> cnpd1<14> cnpd1<13> cnpd1<12> cnpd1<11>
+ cnpd1<10> cnpd1<9> cnpd1<8> cnpd1<7> cnpd1<6> cnpd1<5> cnpd1<4>
+ cnpd1<3> cnpd1<2> cnpd1<1> cnpd1<0>
+ cbnet2<39> cbnet2<38> cbnet2<37> cbnet2<36> cbnet2<35> cbnet2<34> cbnet2<33>
+ cbnet2<32> cbnet2<31> cbnet2<30> cbnet2<29> cbnet2<28> cbnet2<27>
+ cbnet2<26> cbnet2<25> cbnet2<24> cbnet2<23> cbnet2<22> cbnet2<21>
+ cbnet2<20> cbnet2<19> cbnet2<18> cbnet2<17> cbnet2<16> cbnet2<15>
+ cbnet2<14> cbnet2<13> cbnet2<12> cbnet2<11> cbnet2<10> cbnet2<9>
+ cbnet2<8> cbnet2<7> cbnet2<6> cbnet2<5> cbnet2<4> cbnet2<3>
+ cbnet2<2> cbnet2<1> cbnet2<0> cnnd2<13> cnnd2<12> cnnd2<11>
+ cnnd2<10> cnnd2<9> cnnd2<8> cnnd2<7> cnnd2<6> cnnd2<5> cnnd2<4>
+ cnnd2<3> cnnd2<2> cnnd2<1> cnnd2<0> cnpd2<19> cnpd2<18> cnpd2<17>
+ cnpd2<16> cnpd2<15> cnpd2<14> cnpd2<13> cnpd2<12> cnpd2<11>
+ cnpd2<10> cnpd2<9> cnpd2<8> cnpd2<7> cnpd2<6> cnpd2<5> cnpd2<4>
+ cnpd2<3> cnpd2<2> cnpd2<1> cnpd2<0>
+ lvds_m<8> lvds_m<7> lvds_m<6> lvds_m<5> lvds_m<4>
+ lvds_m<3> lvds_m<2> lvds_m<1> lvds_m<0> lvds_s<8> lvds_s<7>
+ lvds_s<6> lvds_s<5> lvds_s<4> lvds_s<3> lvds_s<2> lvds_s<1> lvds_s<0>
+ icbnet<2> icbnet<1> icbnet<0>
.prot FREELIB
7W j$#<2)$Xp:0:S25P2:S%v'%XA3M[;-/Bh0.#5FM= yh;Q
7W h$+')TC$;V7959jD78%#Y%K=M'79/%MXd\%/=05PG<8<[y
38s$4\PQw['$4\uQw['$,9;<cMc*P#=6%0g>wUe:R- /6K1)+xL<yzsUHvq$,9;<cMc)P8
_f\pu.\M3v9IPv9/9_')23+dkQorH%7%yOBdo#X1wf\pu.9MLv9IPv9/k_$)0
o,9;<C0C9p#=6%0G/WRE:r- /6Z1>+Xl<YZS<huQ$,9;<C0C5p#=6%0G/W3Ey
8IPv9/k_/)2<9zw6B02<sGV:\p $+G/'0E2<sGV:w[H.4\2:w[J.4\2:\0u$+G/'0E2<sGVY
88Dx6%yOBdDxR:q
7W 2[-\) 'R)*p#/[=2'5W;jV9>/80sU_UJQ$S0 9x%Cs<1W%-[(Jbm3>+XAX#<2chu)%[
a/[=2'5W;UV9>/80sU_U Q$S0 9x%Csx1W%-[(JbmU#+XAX#<2ch%v%7gf+*7j#buEy
8>/80Su_'jq$s0 9X%c5<1w%-[(jBMu>+xax#<2CH%)%7GF+*7J#B-e:k3Zt%-1C[)0
oS0 9x%C5x1W%-[(Jbmp#+XAX#<2ch v%7gf+*7j#=uE:K3zT%-132)2[-\) 'Rh0p8
_%-[(jBMP>+xax#<2CH )%7GF+*7J#=-e:k3Zt%-13[)2[-\) 'rHpP#/[=2'5w]eY
8>/80Su_s)2[-\) 'rT%7GF+*7J#$1w%-[(jBM4v9>/80Su_:)2[-\) 'r)%[
a/[=2'5W-E:K3zT%-13+XAX#<2ch1Q$S\ o'Rhsp#/+=Pj#=-E:K[zVbmp3+Z
$[#\;CH :%7G +%%c;P#/+=pJ#>1w%=[ 5wUe:k[ZvBMHv9>Z8y-1p+xa8#du_:)0
oS\ o'R)%7g +%%C5p#/+=Pj#=1W%=[ 5WJE:K[IVbmp#+XA8.DU_[HQ$S\to'Rh(p8
_%=$ 5w3Hv9>Z6y-13i)2[#*;CH s%7G 2%%c7J1w%=$ 5w3uv9>Z6y-13[)0
oS\to'RhPp#/+]Pj#E1W%=$ 5WyE:K[IVbmjV9>z6Y-1)+XA8.DU_I)2[#*;ch/QL
TG 2%%cSP#/+]pJ#B1w%=$ 5w3e:k[ivBM+v98Z56C  9>/80Su_ufq$+G/'0E0
o+g/09.MJ6%v'%Z
FhJ#/[=2'7w;Lv9>/80SP_u*q$s0 9X cS$1w%-[(j=M3p+xax#<23HUs%7GF+*7H#J;eY
8>/80SP_u%q$s0 9X cS=1w%-[(j=M3(+xax#<23H%e%7GF+*7H#BYe:k3Zt%31C$)0
oS0 9x C5$1W%-[(J=mUP+XAX#<23h%S%7gf+*7h#b;E:K3zT%31c')2[-\) [Rj7p8
_%-[(j=Mu(+xax#<23H e%7GF+*7H#=Ye:k3Zt%313$)2[-\) [rH9P#/[=2'7w34v6
:AX#<23h S%7gf+*7h#=;E:K3zT%313')2[-\) [Rh7p#/[=2'7W3+V9>/80sp_()0
oS0 9x C*p#/[=2'7WuE:K3zT%31)+XAX#<23hVQ$S0 9x C)p#/[=2'7W;Ey
8>/80SP_')2[-\) [rH%7GF+*7H#X1w%=[ 7w33v9>Z8y313')2[#\;3H H%[
a/+=Ph#=JE:K[zV=m,V9>z8Y31e+XA8#Dp_$)2[#\;3hJQ$S\ o[R+%7g +% C)p8
_%=[ 7w;e:k[Zv=Muv9>Z8y313+xa8#dP_/)2[#*;3H e%7G 2% c7>1w%=$ 7w3Jv6
:A8.Dp_[JQ$S\to[Rh0p#/+]Ph#=VE:K[IV=mpm+XA8.Dp_[%Q$S\to[Rh7p8
_%=$ 7w3+v9>Z6y31#+xa8.dP_s)2[#*;3H*q$s\TO[ry%7G 2% c0P#/+]pH#H1q
$K[IV=m3V9>z6Y31c+XA8.Dp_[)2[#*;3h1Q$4\pqW['$S0 9x CsE1W6K>;\)8
_6k>D$m$2QR.;v[
4#(98AX#<2_')2HS0 9xRh%7c/[=2'#x1W<b7l./Z2FC.MJ7c 3C8zJ7c cC8zJ7%YobDd\%8
_007g[mKT:m4'.%'!99>oW9/VrXxP[s[!79-a[m#y;*_gh#Sw!m3gh-$[Y
38J$4\s md\ 7C 207gW.S#+\dut,#VrXdaW\*w007gj8$):w.7.4\TrXMm'[
+!+]6dJ[
.ends receiver
