** End of subcircuit definition.
************************************
** Library name: XI_MacrosLib
** Cell name: xi_tinv
** View name: schematic
************************************
.subckt xi_tinv A psup Y
.prot FREELIB
H]=3g\#M+)123#q+:=_78O<5<) 2,.q+:r$*P7*[!=g(:9qpy
3[2E7[w6B02<9zw+o.ujm4up9C*,##=-R[28)Q tw[!t8zwr%A:$Rz((6
eI$2#$:]0M67*KR]XI>MZ203%+$UqM29i*3.# 7)$\H#2);bXMV_JWRba:L
!$ 2y.'l
.ends xi_tinv
