** End of subcircuit definition.
************************************
** Library name: XI_MacrosLib
** Cell name: xi_tnor3
** View name: schematic
************************************
.subckt xi_tnor3 A B C Y psup
.prot FREELIB
H]=3g\#M+Ua:$,\3-/X48j/[!=g(:9qp:d[jyx#=+'a:$U\Uqj8za0'K-[X48=q+:r[hyx8
_I= g 4\D9y0*77xTC)123.-((9Ci56:#+N23/_3wI] *p7%T3)12,.3stw[!t8z(36
:46jq+:r$)yx#M2UD\H#2);bahL
)\3:<xa$+zk:\0u$#KV<X.F5<#m-D[)$,Q=+uxZ'_x Mc_78o<5<94 Y=#!<)10
'#-W8932<9ZW6b028\TK Mej07X(i=%23_% c9[fyU\Uqj8za0'K:0P*77$K-[Z
F8=#::5xP/9#y<BxZ>mz203%+$uQm+[xLY,\P:=E*,#3stw[!t8zwr%A:$Rz(36
eI57\) UF2X7\) :%269$t:]md/%TOcIX4yU*U:ral6b# 7)cI56:#+n23/7$;-[XM/_3Q
7] 2e7[W+*7);7*KR]XI>MZ203%+$UqM2[Xly,*p:=e*,.3STW[!T8ZWR%a:$rZ(36
eIs7\) :%2[7*KR]XI/r*W2O.UJM4UP9c*,.;WF)iIs7\O-d$).dc Z*6U$rD(394Uyx8
Xr=$3W%8
.ends xi_tnor3
