************************************
** Library name: rnr_spice_sanjay
** Cell name: driver
** View name: schematic
************************************
.subckt driver clkin clkin_b din1 din2 t1 t2 gsr lat_en_out lat_en_trist s1_out s1_trist s2_out s2_trist
+s3_out s3_trist s4_out s4_trist d<31> d_b<31> d<30> d_b<30> cbnet<38> cbnet<37> cbnet<36> cbnet<35>
+cbnet<34> cbnet<33> cbnet<32> cbnet<31> cbnet<30> cbnet<29> cbnet<28> cbnet<27> cbnet<26>
+cbnet<25> cbnet<24> cbnet<23> cbnet<22> cbnet<21> cbnet<20> cbnet<19> cbnet<18> cbnet<17> cbnet<16>
+cbnet<15> cbnet<14> cbnet<13> cbnet<12> cbnet<11> cbnet<10> cbnet<9> cbnet<8> cbnet<7> cbnet<6> cbnet<5>
+cbnet<4> cbnet<3> cbnet<2> cbnet<1> cbnet<0> vccaux vcco tsb_s<0> cnnd<13> cnnd<12> cnnd<11> cnnd<10>
+cnnd<9> cnnd<8> cnnd<7> cnnd<6> cnnd<5> cnnd<4> cnnd<3> cnnd<2> cnnd<1> cnnd<0> cnpd<19> cnpd<18> cnpd<17>
+cnpd<16> cnpd<15> cnpd<14> cnpd<13> cnpd<12> cnpd<11> cnpd<10> cnpd<9> cnpd<8> cnpd<7> cnpd<6> cnpd<5> cnpd<4>
+cnpd<3> cnpd<2> cnpd<1> cnpd<0> rnr_pad
.prot FREELIB
7W*vP7D1m[)2V601m[)2VW;+V9PGXW;+V9P78=#;!=%2a9'WF57GT#/vRxXlg%/)+C73H9sQ
$=2's$yW%r,7860W%r,7879;o9-U/79;o9-U/7ZpqM4'$93S Y8UJ7ZUqM4'$9-S Y8UJ[
aKmC.MJ7Z3qx67/%#K>C.MJ7ZIqx67/%#2397j$#<2m$u2/4kSo%6G>r4SuMP(3[
4#P/Xp/9#Y<bXp/9#Y<bXzT%R439-U/79K<9-U/79K<9-U/79;o9-U/79;o9- V79K<9- V79K<96z:6*$o9-A[1$Oy
8[(jH3P:=2'Se5w+*7);<#y%k.2<9zw6k>;\)#y%k.2<9zw!m3gh#*! c3m D<5Y
38H(79k<9-u/79k<9-u/7\) :%y$+zk:\0u$+zk:\0u$+zk:\p $+zk:\p $+d;:\0u$+d;:y[3..[;:\0u$+G/'0E0
o#<2>UJ280sIc[XzT%VU(9-A[M#Y<bXp[S[!79-A[M#Y<bX7w-/#+]4'.-$[T*60
'45W%-[(JW;lV9>/80s1m$)2[-\) huY%7gf+*7Cs<1W%-[(JW;IV9>/80s1mU)2[-\) huj%[
a/[=2'#j3E:K3zT%m3(+XAX#<2_'FQ$S0 9xRj*p#/[=2'#buE:K3zT%mU)+Z
$[-\) H%+%7GF+*7c5H1w%-[(jw-3v9>/80S1C')2[-\) H%H%7GF+*7c5X1q
$K3zT%mp#+XAX#<2_[HQ$S0 9xRh(p#/[=2'#=5E:K3zT%mpP+XAX#<2_[/QL
TGF+*7c7J1w%-[(jw3uv9>/80S13[)2[-\) H :%7GF+*7c;P#/[=2'#>1w%-[(jwUeY
8>/80S1)+xax#<2_i)2[-\) H/q$s0 9Xr)%7GF+*7c5P#/[=2'#=1w%-[(jwjeY
8.o\)/VrXxP[s[!79-a[m# 9Xv)(79/%54F$+G/096Z:6*$Oc8Zj7Sk[c0cpP8
_%=[ #=;e:k[Zvw3uv9>Z8yMP3+xa8#d13/)2[#\;_()2[#\;_s)2[#\;_$)0
oS\ ohJQ$S\ ohVQ$S\ oh/Q$S\ ohuQ$S\ oh%Q$S\ oh Q$S\ oh1Q$S\toh E%[
a/+]PC7>1W%=$ #=uE:K[IVW3hV9>z6YmpP+XA8.D13:)2[#*;_[uQ$S\toh j%[
a/+]PC7=1W%=$ #=JE:K[IVW]E:K[IVWyE:K[IVWuE:K[IVW5E:K[IVWRE:K[IVWVEy
8>Z6yM3v9>Z6yMuv9>Z6yMPv9>Z6yM+v98Dx6t! R.!hs/k!od78.8
5(96Z:6*$Oc8Zj7' ;c$;v7'()u1ol
)KT /=2:#'s25p2<sGV:\>aW79/%mxi>mz203%+$uQ,h:v+$,Q+h'h28)Qu:0p*77$k-[xFv_jXM:v2'9Q+hih+$)2/O)1-SHrw7N>uYX+3Ciz
F>.Su'96Z:6*$O9-a[m#y%k.2<sGV:]MD/%toCix4Ye+ipixLYX+uE9[FY>#!O) 2\9QP:3p*p!;ip9EuYX+4EixFAsd((eUs074D%BA:zJ-4Y
3Mij=[w;=6g61dw6k>D$+G/09-a[m#TUm0'W)-4:DAezHr4:RA:zBYw+3As$Rd(394uY=#oO)1-SHrw7BA:z<Y4:3Gav_jXM:v2'oGk-/b)5<8
oU]7:G6:w;=6g61dw6k>D$+G/09-a[m#TUm0'W)-4:DAszXYwf)1-5># 7)%2\yQP:00*774;-/b))<#o<)1-0>rw7N> YX+3>ixFAsz((eUJ0[
492x12:#'S25P2<Sgv:\>Aw79/%MXI>MZ203%+$Uq4H(F23_JxmIXz'_VWR%ah$rZ(39e yx+3>IXf/_JxPSV2'Og;-/B))<#OZK0*P!;UP6
eO8%J$:Y[3..[;:\0U$+ZK:\0U$#kv<x.f5<#M-$BY;<#=-/BS$#4(c94 y=#!<) 2'Yq+HU/+$)Z((EVv074d%%a:ZjV4:3gA/_Jxm'V0
'\\2(5D\$8\5q]= $+ZK:\0U$+ZK:=md/%TOcIX4yj+lm9i*P!VW+3aj$rD(394Uy=#Oo)1-shRW7ba:Z<y4:3gAV_Jxm:V2'OgK-/B)5<8
oU=7JG7' ;c$;v79k<9-u/79k<9[oW9SV7'v2,_UX)(v23_jX>9[FY>#!O) 2\9QP:3p*p!;ip9EuYX+4EixFAsd((eUs074D%BA:zJ-4Y
3MZj=[w;=6g61dw6B02<9zw6B028\tk mEJ07x(Weje07%((e/28)Qi:0p*77$k-[xFv_jXM:v2'9Q+hih+$)2/O)1-SHrw7N>uYX+3Ciz
F>#SP:y[3..[;:\0u$+zk:\0u$#KV<X.F5<#m-2bT97%((eU28)Qi:0p*77$k-[xFv_jXM:v2'9Q+hih+$)2/O)1-SHrw7N>uYX+3Ciz
F>#Su:y[3..[;:\0u$+zk:\0u$#KV<X.F5<#m-2bT97%((eU28)Qi:0p*77$k-[xFv_jXM:v2'9Q+hih+$)2/O)1-SHrw7N>uYX+3Ciz
F>#S3:y[3..[;:\0u$+zk:\0u$#KV<X.F5<#m-2bT$,Q+huxZ'_5wr%AH$Rz(39E YX+3>ixF/_jXpsv2'oG;-/b))<#ozk0*p!;up6
eO8%VW;=6G61DW6b02<9ZW6b028\TK Mej07X()E*23_Jxm9[fy=yWR%ah$rZ(39e yx+3>IXf/_JxPSV2'Og;-/B))<#OZK0*P!;UP6
eO8%RW;=6G61DW6b02<9ZW6b028\TK Mej07X()E*Y$,q+HUXz'_5WR%ah$rZ(39e yx+3>IXf/_JxPSV2'Og;-/B))<#OZK0*P!;UP6
eO8%5W;=6G61DW6b02<9ZW6b028\TK Mej07X()E*23_Jxm9[fy$#!o) 2\9qp:3P*P!;IP9eUyx+4eIXfaSD((EuS074d%ba:Zj-4y
3MZji#5+ydiGy#y<BxP/9#y<BxZ>mz203%+$uQHh$xLYX+3:=E*7X#!O) 2\9QP:3p*p!;ip9EuYX+4EixFAsd((eUs074D%BA:zJ-4Y
3MZj>#5+ydiGy#y<BxP/9#y<BxZ>mz203%+$uQHh$j23_jXM9[FY=jwr%AH$Rz(39E YX+3>ixF/_jXpsv2'oG;-/b))<#ozk0*p!;up6
e79E#Y<bXp/9#Y<bXzT%R4w9- V79;o9-U/79K<9-U/79K<9[(Jju3:=2'0=]W!M3GJ8c9R3Z
ap7' ;c$;v6C  9-u/7G(Mejil
)\i:y[3..[;Qw['$+zk:\0u$+zk:=MD/%toMux4Yi+uW9I*p!vw+3AH97$;-/xm/_3q
7d1280s43(XzT%R3w9mv,4'):da:Z=yWF)%:P7Z((E v$\gt-%_O[.kl:Oc3yY:9iYmv$\'(36
:O[_3Q
7d S$#<2P:/2w\$OqM4'$\yM!Y22,_Jxc9i*(=#K-/Bj57k/2)P\>S*9e9m4:_D[ud6O*[
a9;) 2>Sqpy
38J$+d;:\0u$+zk:\0u$#<2M2h280S4>:xP/9#y<BxP/9##0-dD\%K!76
BM8.'v 6
.ends driver
