** End of subcircuit definition.
************************************
** Library name: rnr_spice_sanjay
** Cell name: iob_obc_ctrl_pc_x1
** View name: schematic
************************************
.subckt iob_obc_ctrl_pc_x1 cnpd ctsb loc_vss loc_vdd normal_pf op_outb term
+term_b
.prot FREELIB
7W%Y)7g 2%XzT%;U:38GH#9Wi=a:Zb-+:r[*P!Jj(9[\H#2);bah$U*((E%jP[
a=2)1-PIJW2j8za0'K-[Z
FhB53:=2'SB#/ B3280S3p9E7.#[ O'x48_jX)/123#Q+h/*:$#:#+N23/_3wI]AHzBj+Y
8IiYX++W/xi 4\D9y0*7[
49+[Xzw8k$FC$\$#<2P2XlwS/Y<bXlwS/Y<bXz>MZWi)1-(b#=-/B:(7$;-/XM/_JQ
7O[:$#T5u5iG6d#v2C.MJ-#=0KDp/9#=0KDp/9# uM02,_Jxw'Xlyx++w94 yx#!<)10
'\*+:=2')$# 9xVY$,T/q\P $,T/q\P $.kv<9c*5!;h:ra:ZxuWR%a:$rZ((6
eO6=# 0Ym;36*[:M$Gwrsf:=2')$#=0KDpVY#tuM02,_-xm2Xlyx++w94 yx#!<)10
'4-jm9>z6Y# 9xu+$%<5u97(:\/f:=2'0$##0-D'/-/9R3%h$U*((E%+$U\((E%+L
!$ 2y.'l
.ends iob_obc_ctrl_pc_x1
