** End of subcircuit definition.
************************************
** Library name: rnr_spice_sanjay
** Cell name: iob_obc_lvlsh_p_es
** View name: schematic
************************************
.subckt iob_obc_lvlsh_p_es in loc_vss loc_vcco loc_vdd out plvlsel_vccaux
+plvlsel_vcco plvlselb_vcco por_b_vcco
.prot FREELIB
7O[)$4\f:W[23MgS6b023MgS6b028\TK:dahZ=RWF)1-PI# 7) :$rD(*[XM/_3Q
7O$'7=#vRxX78-# 9x j97%v%C-A[M#tuM0'w);3:daSZ=#=-/Bj*7\O-IXMV_JWRba:$#2/0=ajL
)KT [f2 y0\:=2'G6C  9ID[69/%mxLWs/y%k.26\tk mE)S7x(Me 23_jXCsxmv_jwrBA:l
)KT [U2 y0\:w[/$#<23u/23mGs6k>D$.KV<X.FSJ#m-'b)$,Q+h'h28)Qi:0p*==#!<) 0
'\*23SXzT%[W!=XzT%33e9id[69/%MXI>MZ203u)$UqUHUXlyx+Ue9[fyh#!o)\h$rZ(36
eO6%3h:=2'g7:;[4D78%#=0KDp[STWFM>G<Sgv:]md/%TOmUX4yj+p:ra:ZbyWR%a:$rZ((6
eO6%3+:M4'$#<2'C8zJ7%v%C-A[M#=0KDp[STW2O.UJM43m9c*5!-U:ra:ZbyW+3at$rD((94Uyx# ZK.zyb8
oU]7H)7\) [%y$#<2'9ID[69/%mxLWs/y%k.26\tk mE)S7x(>e 23_jXCsxZ'_rwr%A:$Rz((9[![m\(C6
eO6%]W+*7;.4\2:]ip39<=q\>Aw7%v%C-A[M#=0KDp[STW2O.UJM43m9c*77%((E%v$rD((94Uyx8
oU]7H(7\) [UV$DdF.9ID[69/%mxLWs/y%k.26\tk mE)S7x(CeU23_jXCsxZ'_vwr%A577$k-[z
F>.S4:Jp/M6C  9$L<,z)f-dP[stwt%3]$,t/Q\>aW7*90B7D'J;wI) -7<#=-/bJ*7$;-/xm/_jq
7O$'*7:;[4D78%#tF\iUT,/Y%K.23MgS6K>d$,T/q\>Aw7*90b7d'j;Wi) 23_JxcSXMV_JWRba:L
)KT [v280S$:].3.-/y%k.23mGs6k>D$,t/Q\>aW7*90B7D'J;wI) -57%((e%V$Rd((94uYX8
oU]7s$#<2'c8Zj7*=6R0(3-/y%k.280S$:R.a.+G/09$oW9SV7uU2,_-XM9I*p!-L:=E*57$;-! 2\9QPY
3Mij=-w+*7HSH# 9X=23mGs6k>D$,t/Q\>aW7*90B7D'J;wI)%-S7%((e%V$#4(>94 Y33wrBAHl
)K  ux\v-Ww2R-L/0%s6k>;\)#[O-,gh#Swfm>g<9zw+o.ujm43M9C*7!34:RA:zH#!O)12\9Q+Y
3MZj>#VrXx78-#=0kdP/9#=0kdP/9# Um0'W);3:DAszJ#=-/bs$#4(3/xmv_.P:00*77\D%m[*5[
49+x :$#<2'98z$,T/q\0U$,T/q\0U$#kv<x.fsj#M-'Bt)7%((E/28)qU(94 y33WRbahL
)K  'xZt%[w2R-L/0%s6k>;\)# 9X=gh#Swfm>g<9zw+o.ujm43M9C*5!;wf)1-)7\o-'xmv_.P:00*7[
49+x 2 Y0\:W[/$,T/q\0U$,T/q\0U$#kv<x.fsj#M-'Bt)7%((E/28)qU(94 y33WRbahL
)K  (xD\%# 9X=23mGs6B023mGs6B028\tk mE)S7x(39I*p!vwr%A:$Rz((6
>)$dDf.C8zJ7%v%C-U/7g(>EF\L
s3w+*7;$,t/Q\0u$sQuEeh\l
s-wt%3]$,t/Q\0u$sQu(Jz
a)7\) 5d78%#=0kdP/9#/-[%-)D8
/(98Zx7%V%c-u/7G(p:_0
'\*3:W[/$4\WFM>G<YDWFM>G<YDW2O.U$UqUHUXlyx++w9[fy=JWR%a577$K-[Z
-\#*50Xz
.ends iob_obc_lvlsh_p_es
