** End of subcircuit definition.
************************************
** Library name: rnr_spice_sanjay
** Cell name: iob_obc_lvlsh_n_e
** View name: schematic
************************************
.subckt iob_obc_lvlsh_n_e in init_vccaux_lvlsh_b loc_vss loc_vccaux loc_vdd
+out
.prot FREELIB
%'X\V-wWFM>G<9ZW%)/-9d8
/M9[(j1#=0kdP/9#/-sbV [
g+:W[/$,T/q\0U$Sqp>E*\L
)KTM98Zx7C :R.a.+d;:R.a.+d;:]MD/7x((efT$,Q+h/*28)QP(94 Y33wrBAHl
)K  [x\v-Ww!=323mGs6B023mGs6B028\tk mEJ07x(3e/y$,Q+h'/28)QP(94 Y33wrBAHl
)K  (xD\%# 9X=23mGs6B023mGs6B028\tk mEJ07x(39I*p!-i:0p*p7$k-/z
F>#SP(9[(j1##+9ID[69k<9ID[69k<9[oW9SV7'v2,_3X>2xLYX+u>9[FY=jwr%A577$k-[z
F>#SL:m4'$4\F:R.a.+zk:R.a.+zk:=MD/%toCix4Y=+i)9I*p!-i:=E**7$;-! 2\9QP:=GaW#QuY
3Mij=Uw+*7e;7:;[4xLWs/y%k=m'7%V%c-a[1$o:]MD/%toCix4YJ+3>9I*p!-i:0p*p7$k-/z
F>.SPp9[(j1##+w7g<sG$r3dL<,z*Q-xLWs/y%k=m'7%V%c-a[1$o:]MD/%toCix4Y=+u:RA:zBvwr%A:$Rz((6
eO6%3U:=2';=# 9x=23MgS6K>;\)#=0KDp[S[!79$Ow9sv7'V2,_;xm:Xlyx+U>94 yx#!<)10
'\*23[Xd\%##+-XzT%]4:r.A.+g/'0e26\TK Mej07X(3EHE$,q+H'/28)qI:0P*==#!<) 28Ogv+)%0
'\*23UX\V-wW!=3280s,39id[69/%54f$.kv<x.f5<#M-UB))7%((E%S$rD((94Uyx8
oU]7H*7\) 5x787\) (f23mGs6k>;\)#TUm0'W)-4:DA)zJvwf)1-5H#!O)12\9Q+Y
3Mij=vw+*7e07\) 5xLWs/y%k=m'7%V%c-a[1$o:]MD/%toCix4Y=+L#9I*p!-i:=E*)7$;-! 2\9QP:=GaW#QuY
3MZS7C [98Z$,t/Q\0u$,t/Q\0u$#KV<9C*7!5wf)1-pi# 7)U2\yQ+:00*p[
+!+]6dJ[
.ends iob_obc_lvlsh_n_e
