** End of subcircuit definition.
************************************
** Library name: rnr_spice_sanjay
** Cell name: iob_obc_pred_nf2
** View name: schematic
************************************
.subckt iob_obc_pred_nf2 loc_vss loc_vccaux opn opni
.prot FREELIB
7O['P7Tt+9.I84#=0KDp/9#=0KDp/9# uM0'w)-4:dajZI#=-/Bj)7$;-/XM/_JQ
7O$'P7Tt+9.I84#=0KDp[S[!79id[69/%54f$.kv<x.f5<#M-'Bt$,q+H'/28)qU:0P*==#!<) 0
Zr\t;M70
.ends iob_obc_pred_nf2
