** End of subcircuit definition.
************************************
** Library name: rnr_spice_sanjay
** Cell name: iob_tsb_mux21c
** View name: schematic
************************************
.subckt iob_tsb_mux21c i0 i1 s x
.prot FREELIB
7W%Y(7ZW+*7t574#qW[p$U\((E%:P7% -/B:(x# TW[!T8Z(39cIyx+U(/Xl6_Jx($10
o.:#+n23/_3Q
7O$S$)# 9xJh$+D;:\P $.kv<9c*57%((E1t$#4(P94 yx#!<)10
'\*3:=2'9=# 9xJE$+D;:\P $.kv<9c*7!u4:ra:ZxuW+3aj$rD(*[XM/_3Q
7O$:$#<2)(XU$4JW6%P26\TK:dah$,q+H/*2\Yq+:00*P[
492[XzT%5,:=2'(b##39- V7*90bX4y=#=-/B:(7$;-/XM/_JQ
7O[S$#<2)[XzT%5,:\0U$+ZK:=md/7X(3EJ+$,q+H/*2\Yq+:00*P[
49+'XzT%5,:bX7779K<9[Ow9#M-[Xlyx++w94 yx#!<)10
'\\+:=2'9E# 9x*j$4JW6b028\TK:dah$,q+H/*2\Yq+:00*P[
49+UXf$#<2)[Xp/9#Y<bXz>MZWi)%23_Jx($Xz'_-WR%a577$K-[Z
-\#*50Xz
.ends iob_tsb_mux21c
