** End of subcircuit definition.
************************************
** Library name: rnr_iob
** Cell name: iob_comparator_all
** View name: schematic
************************************
.subckt iob_comparator_all comp_out ctl_NorP enable pad_in ref_in reftype
+vccaux ghigh_b init_vccaux_lvlsh_b
.prot FREELIB
7W Y77\) IJ2<Sg$R3XzT%Vj:=2's># 9xuY$4\# C-A[1$Oqr-l///fy
88Dx6S=6B;'76-4Y
38H97')tXOit7G2fc[D:.# 9X/:$4tFQ3.3548
o!/xZt%;H:=2')H#T'%d787')tc8Z$+G/'0E2hm0s%mMiG8[20yz
F6<3+:k.o66t! 9[(jJYw+*7y)79;O9$oW9#m-ub:$,Q+h/*2>)Qu:0p*p7$k-/z
F8<j+:k.o66t! 9[(j<5w+*7y)79k<9[oW9#m-ub:$,Q+h/*2>)Qu:0p*p7$k-/z
Fh=]w+*7y(7\) ij2'4/#+\x48_jXC/123#Q+h/*:$#:#+N23/_3wI]A:zBj+Y
8IiYX++W/xi 4\D9y0*7[
4#>9[(J$JW+*7+*74#qW[p$U\(cE/:P7% -/B:(x# TW[!T8Z(39cIyb+I(/Xl6_Jx($10
o.:#+n23/_-Q
7W%)$#<2>:XzT%5+:38GH#9Wi=ahZbJ+:r[*P!Jj(9[\H#2);bah$U*(cE/:P[
a=2)1-PIJW2j8za0'K-[Z
Fh=jw+*7sp7\) ih280SH>9E7.#t5C9CZY=+L(/xL8_jX($128DC z*6uYB#m2)%-)Xjq
$r$*P!Jj(9$\H#2);ba)L
)CPW9G>hohs[92ZG-%):=2'9i#o!c[;8y-wI=A:zBj+:R[*p!jJ(9[\h#2);BAHl
TxT-/bJpX#=2)1-pijw2J8ZA0'k-[z
-\#*50Xz
.ends iob_comparator_all
