** End of subcircuit definition.
************************************
** Library name: rnr_iob
** Cell name: iob_xor2i
** View name: schematic
************************************
.subckt iob_xor2i A B Y
.prot FREELIB
7]VhP7PW+*7S)7\) :%2<YDW2O.U$UqpH'Xlyx++w94 yx#!<)10
'.;W8932g79;o9$Ow9#M-[Bj$,q+H/*2\Yq+:00*P[
4 P/12e70W+*7S579K<9[Ow9#M-[Bj$,q+H/*2\Yq+:00*P[
4 39o280sI>9=2<9ZW+O.U$UqpH'Xlyx++w94 yx#!<)10
'4-W'9[(Jh-W7WD78+#M+)1-)xJWF=a:Zxu+:=_78O<5<) 2,.q+H:1:$,*((E1tP[
atTW[!T8Z(36
e7770W+*7S)74#qW[p$U\((E/:P7% -/B:(x# TW[!T8Z(39cIyx+I(/Xl6_Jx($10
o.:#+n23/_3Q
H0[I:MsQ
.ends iob_xor2i
