** End of subcircuit definition.
************************************
** Library name: rnr_iob
** Cell name: iob_input_buffer
** View name: schematic
************************************
.subckt iob_input_buffer cbnet<2> cbnet<1> cbnet<0> comp_enable
+comparator_out ctl_NorP cz_ref diff2cmos_in diff2cmos_inb
+extst_smpl fin_b force_ttl_io fst_cfg_b ghigh_b gpwrdwn gts_cfg_b
+in in2_lvds init_vccaux_lvlsh_b out_comp out_true pad_res
+por_b_vcco reftype vccaux vcco vref
.prot FREELIB
7O['77*$oC6(/79K<9-U/79K<9[Ow9sv7Uu2,_uxc$Xlyx+I:=e*57$;-[XM/_3Q
7O['P7*$oC6(/79K<9-U/79K<9[Ow9sv7Uu2,_uxc$Xlyx+I:=e*57$;-[XM/_3Q
7]1261DS;*02<Sgv:\>Aw79/%MXI>MZ203u)$UqpcEVS$,q+H'H2>)qU:0P*77$K-[Z
F>#Su:\0u$+')t9-u/79k<9[oW9SV7'v2,_3X)9I*7!3L:=E*SX#!O)\H$Rz(36
e77I#/[=2'#b1W6K>d$/PK[9[(J=]4:=2'7E;W2M6GX69/%MX7w-/2F\0>J=/3m6
e7[Mkt'Y22[Mkt'Y='w8/vRxXAJ,/ 0Y$280s33$XIgY/59bXA+6')T96( %Pt99-A[1$Oy
8G>hohs[98Zh%/y%k=m'6%yfB;gx7CV[c>D>.[5'X.3.1%=Y
38 hD:u%o.u$#<2C2U2v4:[CkMD/6C :%8\ BG90Bd78-#=6%0g[mKT:R- /6S5r*z
$hm0sOw_\5sKV<9Ci7_3Xp9CiS_3XWix46BQ+hix46HQPh2x4.yC[t)%-7[
aMqb.M:S<(>E12,#-(3E j$U\p-/BvL
)C=6%0280Su)uxiGy/59Bx78B/=6%02v4:[CkMD/6C :\>aGR4w!m3g3+dkQw3m [
4#u0eG[Mkt:%8\ 6gvu]XU[/k# xDAw\*WF\PU.ST929.MJ6gvu]X Hd:$u]Dd8[
a;!j_;>./v+-XU[/k# xDd87Z/aO8'J6T [9ipV9/v+9ipV9/v+-X7w-/#[0_G>r4Q
7WmM'6s5R*X Hd:S Y4($9g*uW7'.%'!99ipV9/2;022wrsS Y4($Yc[T5mI.M\Q
$%8\ 1ktqM[/$9g*uW7'.M\W<K;OH%sS0=323+DKqM[23+DKqM[/$4TfqW3M 6k!76
e7/SH9!x72D2Zf:]= .8<K:=2'5<JW<K;OH%sS%MmI$9g*uW7'.%'!99-A[M8
_!m3g/sh9!X70
'4RW25PG:0ZW+*7j0I#;!j_G[Mkt:%8\ 6s5R*Xp[S[!79-3Td##0-DU/%%Sab7l.-$[y
38H97z/Ao8'j6t [9-a[m# 9X%+77z/Ao8'j6t :=2'5<jw2m6gx69/%mz
$hm0s R-ud%-sMuz
Fh=rwOw_\G\*s0=32<sG$r3xZt%-4W9p7 D[92c.Z$#<2Cij2h#C2Q\>aGR4sf\Iud60q
$W./.%%Y<f7j.bRQ
7W S$,9;<C.zX79/%54f$#<2c2u23+DKqM[280s3>:X784sS6K>;\)/=6r0>.-8
_!m3gj,9kAX%g5<8
5398Z$.[;Qy2u$8QP(/z
3S7*$Oc6(/7*$Oc6(/7'(3/10
'43+e9g>HOHS[9[(Jj;4:j.3[0/vTjXfH6\v;'X48_Jxc/123#q+H/*:$#:#+n23/_3Q
$d$*P!-+(9iIyx++w/XI 4\d9Y0*7[
4#3I/2/SH9!x7Gw## 9x%E57\) '*Y$)cS+M6j$U\((E%:P7% -/B:(x# TW[!T8Z(36
:46_Jxc/123.q+H/*:$.:#+n23/_3Q
7W%hP7gf+*7CPp#[0Y>(.%s=:=2'5I]W7WDzw8-Wi=a:ZbJ+:r[*P!Jj(9[\H#2);bahL
TxT-/bJpX#=2)1-pijw2J8ZA0'k-[z
FhBj,:k3Zt%MPv9_D:s<s XI280SuE'xFh6\V;'x48_jXC/123#Q+h/*:$#:#+N23/_3q
$d$*P!-+(9iIyx++w/XI 4\d9Y0*7[
4#3(XzT%;+#9_UJ6g[ZC3280sUeIXfH6\$+%%2,#q+H'1:$,\((E1tP7\[!=g(:9qpy
8CiYX+u(/xL6_jX($126DC z*6uY=8
o!sxo7a#9(>xu[/K# XdD8-#o!c[;8y-wI=A:zBj+:R[*p!jJ(9[\h#2);BAHl
TxT-/bJpX#=2)1-pijw2J8ZA0'k-[z
Fhe#=6%0gW#0wOw_\G\*s0=3280Su#'xFh6\$+%%2,#Q+h'1:$,\((e1Tp7\[!=G(:9QPY
8CiYX+u(/xL6_jX($126DC z*6uY=8
o!(f2A/CDAc3280Su#'xZt%-,M9E7.#[ O'x48_jXC/123#Q+h/*:$#:#+N23/_3q
$d$*P!-+(9iIyx++w/XI 4\d9Y0*7[
4#c[ 2T)sK C0O6,# 9x%Es7\) UuS$)cS+5[ 57X -/BjPx#=+)1-PIJW+j8za0'K-[Z
$,.Q+h'1:$,*((e1Tp7*[!=G(:9QPY
38H(e#/0o$gt#[Ff*xZt%;P39[(jB],:38g81\;C9CZYX+u(/xL8_jX($128DC z*6uY=8
_I]A:zBj+:R$*p!jJ(9$\h#2);BAHl
)CJ:o Nx7K+49p7 D[92c.Zx74#Q==ZvB#m+)1-5Xjwf=A:zXU+:=_78o<5<) 0
oU*((E%:P7%t-/B:(x#tTW[!T8Z(36
e797kp49m:_-#=6%0Gw#0W7WDzg#DU:d[*P!-+(9izyx++w/Xz 4\d9Y0*77Xt-/BjPx8
_f]A:zXU+:]_78o<5<) 0
'4-+:=2'5>RWTb7G[d2S[C8zJ74#qW[p$U\((E%:P7% -/B:(x# TW[!T8Z(36
:46_Jxc/123.q+H/*:$.:#+n23/_3Q
7W%h$dT5%*D'J,/#09[(JjJ,:38GH#9Wi=a:ZbJ+:r[*P!Jj(9[\H#2);bah$U*((E%:P[
a=2)1-PIJW2j8za0'K-[Z
FhBj3:N$4:yx :=2'S=3w7wd78+#m+)1-5Xjwf=A:zXU+:=_78o<5<) 2,.Q+h'1:l
T%T-/b:(X#Ttw[!t8z(36
e75xVWu[N2>=_f:38GH#9Wi=a:ZbJ+:r[*P!Jj(9[\H#2);bah$U*((E%:P7%t-/B:(x8
_2J8ZA0'k-[z
FhBj4:o1N$\j%[9E7.4\y:D[*p!-+(9IZYX++W/xZ 4\D9y0*77xT-/bJpX#=2)1-pijq
$]_78O<5<) 0
'43l)9[(Jb],:=2's=uW7WD78+#M+)1-5xJWF=a:Zxu+:=_78O<5<) 2,.q+H'1:L
T%T-/b:(X#Ttw[!t8z(36
e75xuWTM6AT6T[T9gI,8DM+9[(Jbu,:O1n$)cS+M6)$U\((E%:P7% -/B:(x8
_+J8ZA0'k-[x46_jXC/123.Q+h/*:$.:#+N23/_3q
7W%:97:v;K2Gwd:WZ]c3VU\W+*7j*b#93>XfH6\v;UX48_Jxc/123#q+H/*:L
T\[!=G(:9QP:D$*p!-+(9IiYX++W/xi 4\D9y0*7[
4#3IJ2a%ZS%jgGX7:#+C32 9sS%jgGX6c  9[(Jj;I:j.3[0/2 rXfH6T$!U 0
oU*f-/BjPx#=2)1-PIJWi]3G 4\d9Y0*77Xt')1-5xJWi]=G 4\d9Y0*77X [)1-5xJQ
$r[*P!Jj(9czX6:#+n23/_3Wi==*P!-+(9czg6:#+n23/_3Q
7W :5722<C>\a60WTW[GX7\) UuS$#<2mUV2'4/v'W%h$U\$-/BjPx#=+)1-PIJQ
$d[;.dc Z*6Uy=#M+-a:ZbJ+:d[/.dc Z*6Uy=#M2-a:ZbJ+:r$*P!Jj(6
:46-/[!=g(:9qp:d$;yx+U(/X461/[!=g(:9qpy
3MZp7t! c>D>.# 9X%T979k<9-u/7\90Bx4YX+u:RA:zXYwr%A:$Rz((6
ez7$#vRxD':r<W+*7j($#Y<bXp/9# uM02,_Jxc9i*P!Jl:0P*P7$K-/Z
-\#*50Xz
.ends iob_input_buffer
