** End of subcircuit definition.
************************************
** Library name: rnr_spice_sanjay
** Cell name: iob_obc_pred_n_c
** View name: schematic
************************************
.subckt iob_obc_pred_n_c gtl0 gtl1 gtl2 loc_vss loc_vccaux nslew0 nslew1
+nslew2 nslew3 nslew4 nslew5 opn opn_del opni opni_del
.prot FREELIB
7O$'7j# 9x%j)7\KF*ch$,T/q\>Agr4WFM>G<Sg$R3XI>MZ203%+$UqpH/u23_JxPIXMV_JWRba:L
)KT 'h280Su)sxZ/,<m(9[(j=;H:R.a.+G/'0E26\tk mEJ07x(3e1)$,Q+hiv2\yQ+:00*p[
492x%t$#<2c'/289%)i/XzT%3he9id[69/%54f$.kv<x.f5<#M-[B:s7%((EV+$rD((94Uyx8
oU]7y77\) '1+$,t/Q\>aGR4wfm>g<sG$r3xLWs/y%k=m'7*90B7D'BrwI) 23_jXpixmv_jwrBA:l
)KT 2%280SuC:xLWs/y%k=m'7%V%c-a[1$o:R.a.+G/'0E26\tk mEJ07x(39I*p!r4:0p*p7$k-/z
F>.SHM9[(jB5L:R.a.+G/'0E280Su(ixLWs/y%k=m'7*90B7D'BrwI) 23_jXpixmv_jwrBA:l
)KT 2/280SuC:xLWs/y%k=m'7\) '1H$,t/Q\>aGR4w2o.ujm4up9C*77%((ev+$Rd((94uYX8
oU]7H$#<2C2h23mGs6k>;\)#=0kdP[s[!79ID[69/%54F$.KV<X.F5<#m-[b:)7%((ev+$Rd((94uYX8
o2[*J$#<2C'/289%)I:xLWs/y%k=m'7%V%c-a[1$o:]MD/%toCix4Y=+L:RA:zBvw+3AJ$Rd(*[xm/_3q
7]F280sUc:Xz/,<MP9id[69/%54f$,T/q\>Agr4W2O.UJM4UP9c*7!RWF)1-5h# 7)u2\Yq+:00*P[
492xJ280sU)SXz/,<M>9id[69/%54f$,T/q\>Agr4W2O.UJM4UP9c*7!yWF)1-5h# 7)%2\Yq6394Uy=8
oU]7H)7\) '%s$#z=9D%23mGs6k>;\)#=0kdP[s[!79$oW9SV7'v2,_3X([xLYX+uW94 YX#!<)10
'\*2#9[(Jb5l:r.A.+ZK:r.A.+g/'0e23MgS6K>;\)#tuM0'w)-4:dahZbRWF)1-5h#!o)12\9q+y
3MijJ# 9X%y*7\kf*CH$,t/Q\>aGR4wfm>g<sG$r3xi>mz203%+$uQPh/U23_jXpixmv_jwrBA:l
)*u32xZt%3HE9[u30x+:R.a.+G/'0E23mGs6k>;\)#TUm0'W)-4:DAHzX;wf)1-0<#!O)12\9Q+Y
3MijH# 9X%y*7\kf*CJ$,t/Q\>aGR4wfm>g<sG$r3xi>mz203%+$uQPh/ 23_jXC$xmv_jwrBA:l
)KT $xZt%-HE9[u30x4:R.a.+G/'0E23mGs6k>;\)#TUm0'W)-4:DAHz<#=-/bJ)7\o-uxmv_jwrBA:l
)KT 2v280Su)sxLWs/y%k=m'7%V%c-a[1$o:R.a.+G/'0E26\tk mEJ07x(39I*p!-i:0p*p7$k-/z
F>.SH)9[(jB-i:R.a.+G/'0E23mGs6k>;\)#=0kdP[s[!79$oW9SV7'v2,_3wf)1-5H#!O)12\9Q+Y
3MijHUw+*7J9>#=0kdP[s[!79ID[69/%54F$,t/Q\>aGR4w2o.ujm4up9C*77%((ev+$Rd((94uYX8
oU]7s*7\) '%s$,t/Q\>aGR4wfm>g<sG$r3xLWs/y%k=m'7*90B7D'BrwI) 23_jXC:xmv_jwrBA:l
)KT :f280SuC:xLWs/y%k=m'7%V%c-a[1$o:R.a.+G/'0E26\tk mEJ07x(3e J07%((e%s$Rd((94uYX8
oU]7+p7\) 'jV$,t/Q\>aGR4wfm>g<sG$r3xLWs/y%k=m'7*90B7D'BrwI) 23_jXC:xmv_jwrBA:l
)KT i 280SuC:xLWs/y%k=m'7%V%c-a[1$o:R.a.+G/'0E26\tk mEJ07x(39I*p!-J:0p*p7$k-/z
F>.S4C9[(jB5L:R.a.+G/'0E23mGs6k>;\)#=0kdP[s[!79$oW9SV7'v2,_3wf)1-5H#!O)12\9Q+Y
3Mij=jw0][2W.\#:=2'5Bvwfm>g<sG$r3xi>mz203%+$uQuh'v23_jXC:xZ'_rwr%A:$Rz((6
eO6%R3:=2'5$yWFM>G<Sg$R3XlwS/Y%K=M'7%v%C-A[1$O:]md/%TOcIX4y=#=-/B+07$;-/XM/_JQ
7O$'0h# 9x%:77%v%C-A[1$O:r.A.+g/'0e23MgS6K>;\)#tuM0'w)-4:dah$,q+HIV2\Yq+:00*P[
492xV+$#<2c2H23MgS6K>;\)#=0KDp[S[!79id[69/%54f$.kv<x.f5<#M-[Xlyx+Uw94 yx#!<)10
'\*2P2XzT%-he9id[69/%54f$,T/q\>Agr4WFM>G<Sg$R3XI>MZ203%+$UqpH[%+$,q+H'/2\Yq+:00*P[
492xVt$#<2c'/23MgS6K>;\)#=0KDp[S[!79id[69/%54f$.kv<x.f5<#M-[Xlyx+U>94 yx#!<)10
'\*2PSXzT%-U>9id[69/%54f$,T/q\>Agr4WFM>G<Sg$R3XI>MZ203%+$Uqp:ra:Z<RWR%a:$rZ((6
eO6%R,:=2'5$yWFM>G<Sg$R3XlwS/Y%K=M'7%v%C-A[1$O:]md/%TOcIX4y=#=-/Bj)7$;-/XM/_JQ
7O$'9x# 9x%j)7%v%C-A[1$O:r.A.+g/'0e23MgS6K>;\)#tuM0'w)-4:dah$,q+H'/2\Yq+:00*P[
492x j$#<2c'/289%)iUXlwS/Y%K=M'7%v%C-A[1$O:]md/%TOcIX4y=+l:ra:ZbVWR%a:$rZ((6
eO6%JW+*7j5h#=0KDp[S[!79id[69/%54f$,T/q\>Agr4W2O.UJM4UP9c*7!JI:ra:Z<RWR%a:$rZ((6
eO6%RW+*7j9># <r24s7%v%C-A[1$O:r.A.+g/'0e26\TK Mej07X(3EH23_Jxc:XMV_JWRba:L
)*PW2xZt%-u>9ID[69k<9ID[69/%54F$,t/Q\>aGR4w2o.ujm4up9C*7!;u:RA:zBvwr%A:$Rz((6
eO6%-W+*7hs$# <r24P7%v%C-A[1$O:r.A.+g/'0e26\TK Mej07X(3E1)$,q+HIV2\Yq+:00*P[
492xH2w.\So*i2w.\#q%2l$#<2c2H23MgS6K>;\)#tuM0'w)-4:dajZbRWF)1-5h# 7)V2\Yq+:00*P[
49+x/2w.\So*i2w.\#:=2'5EuWFM>G<9ZW+O.UJM4UP9c*5!RWF)1-5h# 7)u2\Yq+:00*P[
49+xF280sU#$X!J,-WFM>G<9ZWFM>G<9ZW+O.UJM4UP9c*5!Jh:ra:ZbVW+3aj$rD(*[XM/_3Q
7O['07\) 'Ft$,T/q\>Agr4WFM>G<9ZWFM>G<9ZW+O.UJM4UP9c*7!-4:ra:ZhyWR%a:$rZ((6
ez5xyW+*7)PE#=0KDp/9#=0KDp/9#=0KDp/9# uM0'w)-4:da:ZE#=-/BY)7$;-/XM/_JQ
7O['*7\) 'Ft$Os=39id[69K<9id[69K<9[Ow9sv7'V2,_3x3UXlyx+U>9[fyb#!o)\h$rZ(36
eO8%JW+*7)PE#d r%23MgS6b023MgS6b028\TK Mej07X(3E 23_Jxc:Xz'_;WR%a:$rZ((6
eO8%5W+*7j;I#=0KDp/9#=0KDp/9#=0KDp/9# uM0'w)-4:da:Z>RWF)1-9<#!o)12\9q+y
3[HSB#V2=xD6#Cw+*7)pe#=0kdP/9# Um0'W)-4:DAJ$,Q+h'/28)Q3:0p*p7$k-/z
F>#SJ:=2'5eUwzXI:$,t/Q\0u$,t/Q\0u$#KV<X.F5<#m-[bHS7%((e%s$Rd((94uYX8
o+[jJ$#<2M/f23mGs6k>;\)#=0kdP/9#=0kdP/9# Um0'W)-4:DAHzJrwf)1-)>#!O)12\9Q+Y
3[:$#<2M/f2A%%P:R.a.+zk:R.a.+zk:=MD/%toCix4Y=#=-/bJ)7\o-'xmv_.P:00*7[
4 3$V280s3((X!J,JWFM>G<9ZWFM>G<9ZW+O.UJM4UP9c*77%((E%S$rD((94Uyx8
Xr=$3W%8
.ends iob_obc_pred_n_c
