** End of subcircuit definition.
************************************
** Library name: rnr_spice_sanjay
** Cell name: iob_obc_lvlsh_p_d
** View name: schematic
************************************
.subckt iob_obc_lvlsh_p_d in loc_vss loc_vcco loc_vdd out plvlsel_vccaux
+plvlsel_vcco plvlselb_vcco por_b_vcco
.prot FREELIB
%/X78-#=0KDp/9#/-I%-0d8
/C9_ xg#=0kdP/9#/-[f-SD8
/39[(j1#=0kdP/9#/-'h-)D8
/>9[(j1/#+XxLWs/y<BxaY=-X)Jz
aS7:;[4d78%#=0kdP/9#/-ib:)D8
oU=U2h#0w!=xLWs/y<BxLWs/y<BxZ>mzwI) -7<#=-/b:(7\o-[12\yQ6394uY=8
oU]7HS7:;[4x78-# 9X J97%V%c-a[m#TUm0'W);3:DAJzJ#=-/bJ*7\o-:xmv_.P:00*7[
492x j$#<23'J280s$:r.A.+g/09id[69/%MXI>MZ203u)$UqUHUXlyx+Ue9[fyh#!o)\h$rZ(36
eO6%3+:M4'$#<2'C8zJ7%v%C-A[M#=0KDp[STW2O.UJM43m9c*5!-U:ra:ZbyW+3at$rD((94Uyx# ZK.zyb8
oU]7V$DdF.c8Zj7*=6R0(369/%mxLWs/y%k.23mGs6k>D$.KV<X.FSJ#m-[xLYX+uE94 YX#!<)10
'\*23IXzT%[W2M6GX69/%MXlwS/Y%K.23MgS6K>d$.kv<x.fsj#M-[Bj$,q+H'H2\Yq+:00*P[
492xF280s$qW['$.%YFb2l.+g/09id[69/%MXlwS/Y%K.26\TK Me)s7X(39i*P!-l:0P*P7$K-/Z
F>.SPE9[(j1##+9[(j=r+:R.a.+G/09$oW9SV7uU2,_-XM9I*p!-L:=E*)7$;-! 2\9QPY
3Mij=]wt%3]$#<2'c8Zj7%V%c-a[m#=0kdP[stw2o.ujm43M9C*S!3wf)1-5>#!O)12\9Q+Y
3Mij=Uw+*7H0X#[O-,23mGs6k>D$,t/Q\>aW7*90B7D'J;wI)%-S7%((e%V$#4(>94 Y33wrBAHl
)KT ix\v-Ws!=726,9=<*I/.+G/09_ xg#=0kdP[stw2o.ujm43M9C*7!34:RA:zBYwr%A:$Rz((6
eO6%VW+*7;.4\2:]ip39<=[C-A[M# 9x=23MgS6K>d$.kv<x.fsj#M-'B)$,q+H'H28)qU:0P*==#!<) 0
'\*23[Xd\%##+-XzT%3j(9id[69/%MXI>MZ203u)$UqIH[Xlyx+Ue9[fy<#!o)12\9q+:=gAw#qUy
3Mij=5w+*7;$DdF.c8Zj7%V%c-a[m#=0kdP[stw2o.ujm43M9C*S!3wf)1-5>#!O)12\9Q+Y
3Mij=vw+*7H(X# 9X=23mGs6k>D$,t/Q\>aW7*90B7D'J;wI)/-77%((e%V$#4(p94 YX#!<)128oGV+)%0
'\\239_ XG##+-XlwS/Y<bXlwS/Y<bXz>MZ203u)$UqUH$/23_Jx>9[fybJWR%a577$K-[Z
F>#S,:m4'$#<2'9ID[69k<9ID[69k<9[oW9SV7uU2,_3wf)1-)7$;-/xm/_jq
7O['7x# 9x=2H##=0KDp/9#=0KDp/9# uM0'w);3:dajZIVWF)1-)7\O-'12\Yq6394Uy=8
oU=7J$#<2'9$L<,z)fc-a[1$o:=2'G6C  9ID[69k<9[oW9SV7uU2,_-XM9I*p!vw+3AJ$Rd(*[xm/_3q
7O['*7T! 98zX7%v%C-U/7%v%C-U/7\90b7d'j;Wi)/-s7%((E/28)qp(94 y33WRbah$#2/0=ajL
)K  ux\v-Ww2R-L/0%s6k>;\)#[O-,gh#Swfm>g<9zw+o.ujm43M9C*7!34:RA:zH#!O)12\9Q+Y
3MiS7C [98Z$,t/Q\p $,t/Q\p $.KV<9C*5!;wf)1-pi# 7) :$Rd(*[xm/_3q
H0[I:MsQ
.ends iob_obc_lvlsh_p_d
