** End of subcircuit definition.
************************************
** Library name: rnr_iob
** Cell name: iob_tlvsht1_25
** View name: schematic
************************************
.subckt iob_tlvsht1_25 A V Y1 Y1_vdd Y2 por_b
.prot FREELIB
7=X#769;o9=2<9ZW6b028\TK:da:ZbyWF)1-PI#!o)12\9q+y
3$2E=/yO%x;$+d;:\p $.KV<9C*p!rH:RA:zXUwr%A:$Rz((6
eI57PU:< 2<79W2O.UJM4UP9c*P!RWF) 2\Yq+:00*P[
4tm9oh$.T5q-Xp$+#tuM0'w)-4:da:Z<-WF)1-5h#!o)12\9q+y
3$H$23w8'xP$+#TUm0'W)-4:DA:z<#=-[xmv_jwrBA:l
)\u:<%2E=/yO%xP/9#y<BxZ>mz203%+$uQ3:RA:zBvw+3AJ$Rd(*[xm/_3q
7=u2<9ZW8[X#579K<9[Ow9sv7'V2,_JxP'Xlyx+U>94 yx#!<)10
'#3W8[X;$+ZK:\0U$#kv<x.f5<#M-UXlyx+U>9[fyb#!o)\h$rZ(36
BM8.'v 6
.ends iob_tlvsht1_25
