** End of subcircuit definition.
************************************
** Library name: rnr_iob
** Cell name: iob_cfg_iostd_cz
** View name: schematic
************************************
.subckt iob_cfg_iostd_cz disa_n disa_p disb_n disb_p disc_n disc_p disd_n
+disd_p dise_n disy_n lvds<0> cbnet<18> cbnet<17> cbnet<16>
+cbnet<15> cbnet<14> cbnet<13> cbnet<12> cbnet<11> cbnet<10>
+cbnet<9> cbnet<8> cbnet<7> cbnet<6> cbnet<5> cbnet<4> cbnet<3>
+cbnet<2> cbnet<1> cbnet<0> fttlo cntlz_b<2> cntlz_b<1> cntlz_b<0>
+refio dise_p fst_cfg_b force_ttl_io vccaux init_vccaux_lvlsh_b
+plvlsel_vccaux plvlselb_vcco vcco por_b_vcco pdelsel_vccaux
+pdelselb_vccaux pdelsel_vcco pdelselb_vcco
.prot FREELIB
7WVt)7\) ' Y$.D)Fb2l.+g/09-A[M#Y<bXfH6s#+\D)s)4O:d[*7!R+(9izyx+I(/Z
$8DC z*6uY=#m2) -0Xjwf]A:zBY+:]_78o<5<)%0
'4R4c9[(JbV3:=2'5xVW6K>d$+ZK:38GJ4\YqUuf')#M+) 23#q+H:1:$#:#+n23/_3Q
$d$*77%t-/Bj*x#tTW[!T8Z(36
e70<3W+*7jPh#tF\iUT,0S6K>d$+g/09-U/74#qx8z<6;373e2,#qpHI1:$,\((E/:P[
a TW[!T8Z(39cIy=+4(/Xl6_JxcS126dc Z*6Uyb8
o!i*H$#<2Ci1280Su3'xP[stw6B02'4/2!=-gSJ4o79CZY=#=+)1-)Xjw+J8ZA0'k-[z
$,.QP:R$*p!-L(9$\h#2);BAHl
)C4WuxZt%-i#9[(jB3H:\>aW79k<9E7.%C 6cU)')4wI=AH$,\((e/:p7\[!=G(:9QPY
8CiY=#=2)1-5>jw2J8ZA0'k-[z
Fh<Uu:=2'5=-w2%2L/0%FQ\>aW79/%mxP/9#o!c778+/3M3EF$u\(3ev:p7% -/bspX8
_+J8ZA0'k-[x46_3Xp/123.Q+h'h:$.:#+N23/_-q
7WVS;7\) 'u:$+g/'0e26,9=<*iG<Sg$R3XfH6s#+\X48_3xP/123#q+H'/:L
T\[!=G(:9QP:D$*7!r+(9IiYX+u>/xi 4\D9y0*5[
4#P2F280sU)[Xp[S[!79[(Jb-j:38GJ4\Y:d[*P!R+(9izyx+U>/Xz 4\d9Y0*77Xt-[Z
$3.Q+h'/:$.:#+N23/_3q
7WV+P7\) 'VY$+g/'0e280sUm/XfH6s#+\X48_JxP/123#q+H'/:$#:#+n23/_3Wi]ahL
T%T-/bJ)X#Ttw[!t8z(36
e70$yW+*7jsE#Y%K=M'7*;9r0(3-/Y%K=M'74#qx8z<7X -[B+Px#=+)1-5hJQ
$=_78O<5<) 2,.qpHI1:$,*((E%SP7*[!=g(:9qUy
38+(X# 9X%J(79/%54F$.d)fB2L.+G/'0E2'4/2!=-2,#QPhi1:$,\((e%sp[
a TW[!T8Z(39cIy=+4(/Xl6_Jxc:126dc Z*6Uyb8
o!ijT$#<2C2%2<sG$r3xZt%-3#9E7.%C 69CZYX+4(/xL8_jXC:128DC z*6uY=#m2) 0
o,*((E%SP7*[!=g(:9qpy
38+SH# 9X/:979/%mxZt%-i>9[(jBv4:=2'5H;w2m6gx69/%mx7W-/2f\0>jB/3M6
e70j]W+*7SPh#Y%K.280sUP/XzT%-439[(JbV,:].3.-/Y%K.2HM0S r-UD%-SmUZ
Fh<;3:=2')X5w6k>;\)# 9X%+97\) ujH$#<2Civ2h#C2Q\>aGR4sf\Iud60q
$W./.%%Y<f7j.bRQ
7WVSP7\) :1S$+g/'0e280sU)'XzT%-hm9[(Jb5p:W[7J69/%54f.,9=<fD/L
TCV[c7L<9h2Cc%+l
)Ci#'xPvy#/[=2'#J1w+*7J9i#k9Rxut,/F:w./.s:DU0E0
'4Vhe9-U/7gf+*7C7<1W+*7j(b#K9rXUT,/f:W./.S:du0e0
'4V439-U/7gf+*7C7j1W+*7j(I#K9rXUT,/f:W./.S:du0e0
'4;3)9-U/7gf+*7C7=1W+*7j*b#K9rXUT,/f:W./.S:du0e0
'4V4c9-U/7gf+*7C7h1W+*7j*I#K9rXUT,/f:W./.S:du0e0
'4;,(9-U/7gf+*7C0p# 9x%E57Z)F90(360W!M3G[d29R3Z
FhJ;,:\0u$s0 9XrHpP# 9X%e(7z)f90(360w!m3g[D29r3z
FhJvu:\p $s0 9Xre%7\) u1J$9<=:B2L.-##0-da oK!76
e7)I-W6%P2[-\) h Y%7\) U1t$9<=:b2l.-##0-DA Ok!76
e7s<3W6%P2[-\) hJQ$#<2m[%2/0%W<*iGX7cv[C>\a\$Oy
38))H#y<Bxax#<2_s)280S33$xut,#k9Rd/$4tFQk_!>R4q
7WuS(79K<9>/80s1w+XzT%;Uc90(37Z)FC32HM0S%jgO\)8
o!uvV$+d;:k3Zt%M+v9[(jJ-J:B2L$9<=Q-x7W-//tNMm'[
4#3$V2<9ZW%-[(JW3UV9[(Jj;I:b2l$9<=q-X7w-//TnmM'[
4#mS/2<YDW%-[(JW-E:=2'sjuW<*i2/0%S[98dX6g[ZO4fL
)C3#sxPvy#/[=2'#H1w+*7))B#k9Rxut,/F:w./.s:DU0E0
'4;hw9-U/79K<9[(JjVj:b2l$9<=q-X7w-//TnmM'[
4#P: 2<9ZW%-[(JW3lV9[(JjRU:b2l$9<=q-X7w-//TnmM'[
4#P'F2<9ZW%-[(JW3jV9[(JjRj:b2l$9<=q-X7w-//TnmM'[
4#P'*2 M'/9C7'36cv:=2's$yW7WD78+#M+)1-5xJWF=a:Zxu+:=_78O<5<) 0
oU*((E%:P7%t-/B:(x#tTW[!T8Z(36
e70xRW+*7j9I#;!b2G674#qW[p$U\((E/:P7% -/B:(x# TW[!T8Z(39cIyx+l(/Z
$3.Q+h/*:$.:#+N23/_3q
7WVjP7\) U1t$8<[!MXfH6c 69czyx+I(/Xl8_Jx($128dc Z*6Uy=#M2)1-*xJQ
$r$*P!Jj(9$\H#2);bahL
)C43'xZt%;uW9IPv9M+v9E7.4\y:D[*p!v+(9IZYX++W/xZ 4\D9y0*77xT-/bVpX8
_f]A:zXU+:]_78o<5<) 0
'4V,w9[(JbyU:%8Ug6*W7WD78+#M+)1-)xJWF=a:Zxu+:=_78O<5<) 2,.q+HS1:L
T%T-/b:(X#Ttw[!t8z(36
e7)E]W+*7)Pb#;!b3G674#qW[p$U\((E/:P7% -/B:(x# TW[!T8Z(39cIyx+l(/Z
$3.Q+h/*:$.:#+N23/_3q
7WV:P7\) U t$YcK[C[2'4/#+\X48_Jx>/123#q+H/*:$#:#+n23/_3Wi]a:Z>J+y
8IiYX++W/xi 4\D9y0*7[
4#P/u280sU#'X H9DS29e7.4\Y:d[*P!V+(9izyx++w/Xz 4\d9Y0*77Xt-/BvPx8
_f]A:zXU+:]_78o<5<) 0
'4R+39[(Jj-U:%8U[6*W7WD78+#M+)1-)xJWF=a:Zxu+:=_78O<5<) 2,.q+HS1:L
T%T-/b:(X#Ttw[!t8z(36
e70xVW+*7))b#;!bPG874#qW[p$U\((E/:P7% -/B:(x# TW[!T8Z(39cIyx+l(/Z
$3.Q+h/*:$.:#+N23/_3q
7WV:57\) U j$YcK%C[2'4/#+\X48_Jx>/123#q+H/*:$#:#+n23/_3Wi]a:Z>J+y
8IiYX++W/xi 4\D9y0*7[
4#P[H280sUw'XA8%%>q-Rj%74#qW[p$U\((E/:P7% -/B:(x# TW[!T8Z(39cIyx+l(/Z
$3.Q+h/*:$.:#+N23/_3q
7W vP7Z)FC32/0%W7WD78+#M+)1-9xJWF=a:Zxu+:=_78O<5<) 2,.qpH'1:$,*((E1tP[
atTW[!T8Z(36
e77IyW+*7S7$#K9rD/$)cS!=-2,#q+H21:$,\((E1tP7\[!=g(:9qp:d$*7!-+(6
:l6_Jx($126dc Z*6Uy=8
o![/J$#<2Mu/2v4z:Q=xFh6C 69CZYX+i(/xL8_jX($128DC z*6uY=#m2)1-*Xjq
$r$*P!Jj(9$\H#2);bahL
)C4(2xZt%;3W9p7/0/ :38gh#9wI=A:zHj+:R[*p!jJ(9[\h#2);BAH$u*((eh:p[
a=2)1-PIJW2j8za0'K-[Z
Fh<3i:=2'SHUw+*7spX#o!c8Z<7x -/bspX#=+)1-pijw+J8ZA0'k-[x46_jXE/10
o,*((E1tP7*[!=g(:9qpy
38s;># 9X%e(7d#<5dZ$)Cs!=-2,#Q+h:1:$,\((e1Tp7\[!=G(:9QP:D$*p!Y+(6
:l6_Jx($126dc Z*6Uy=8
o!i/V$#<2Mi%280Si(:xFh6C 69CZYX+i(/xL8_jX($128DC z*6uY=#m2)1-*Xjq
$r$*P!Jj(9$\H#2);bahL
)C4M'xZt%;4W9[(jHjH:38gh#9wI=A:zHj+:R[*p!jJ(9[\h#2);BAH$u*((eh:p[
a=2)1-PIJW2j8za0'K-[Z
Fh<3H:=2'5>Uw%=7L+6013+xFh6C 69CZYX+i(/xL8_jX($128DC z*6uY=#m2)1-*Xjq
$r$*P!Jj(9$\H#2);bahL
)C43ixZt%-JW9>Zj,bs[H1q$)Cs!=-2,#Q+h:1:$,\((e1Tp7\[!=G(:9QP:D$*p!Y+(6
:l6_Jx($126dc Z*6Uy=8
o!i%+$#<2M2h2 9Ss%JGgx7\) : )$)Cs+5[ 57x -/bJpX#=+)1-pijw+J8ZA0'k-[z
$,.Q+h'1:$,*((e1Tp7*[!=G(:9QPY
38H(e#[ XID$#<2>[U280Si32xFh6\$+%%2,#Q+h'1:$,\((e1Tp7\[!=G(:9QPY
8CiYX+u(/xL6_jX($126DC z*6uY=8
Xr=$3W%8
.ends iob_cfg_iostd_cz
