** End of subcircuit definition.
************************************
** Library name: rnr_ioi
** Cell name: ioi_ol_4to1_mux
** View name: schematic
************************************
.subckt ioi_ol_4to1_mux in0 in1 in2 in3 out sel0 sel0_b sel1 sel1_b sel2
+sel2_b sel3 sel3_b in4 sel4 sel4_b
.prot FREELIB
H]=3g\#M+)P\,##M2)P\,.8
o!2x78H#k9R/2/0%iQ-xD\%#o!c7!G%<wI=A487% -/b:(X# tw[!t8z(39CiYu*q
$r$*P!Jj(9$\H#2);bahL
)CP:w[H$9<=390(3=/F:m4'$)Cs N='t7x -D[23#Q+h/*:$#:#+N23/_3wI]A46[
a=2)1-PIJW2j8za0'K-[Z
FhJ##+'xut,-w<*IJ.-#VrXxFh6SD'X22,#Qm+9IZYX++W/xZ 4\D9y0*77xT-D$0
o,*((E1tP7*[!=g(:9qpy
38s$4\3:B2LS7z)fud/$m$2:38gjo[299CZYu\wf=A:zXU+:=_78o<5<) 2,.Qm26
:l6_Jx($126dc Z*6Uy=8
o!/x78X#k9R12/0%+Q-xD\%#o!c7!G%<wI=A487% -/b:(X# tw[!t8z(39CiYu*q
$r$*P!Jj(9$\H#2);bahL
!$ 2y.'l
.ends ioi_ol_4to1_mux
