.GLOBAL vss vdd vcco vccaux
************************************
** Library name: rnr_spice_sanjay
** Cell name: pkg_load
** View name: schematic
************************************
.subckt pkg_load pad pin
.prot FREELIB
F/XIgY# 9x*23_y+(E1IL
%C+:=2'7<#y<Bxih##y<BxXp_54:Xp*0X*w+RA:zBrq
%/XzT%34:\0U$Sq4(/B: [
'+:=2'(7\) [V2:_3+(E1OL
!$ 2y.'l
.ends pkg_load
