** End of subcircuit definition.
************************************
** Library name: rnr_spice_sanjay
** Cell name: rcload_predn_d
** View name: schematic
************************************
.subckt rcload_predn_d in out
.prot FREELIB
%/X7879K<9>*9j:Q
%[Xd\%#Y<bXAy$;[y
y12h##VrXx3YJjPY
e4Z68t2Y
.ends rcload_predn_d
