** End of subcircuit definition.
************************************
** Library name: rnr_spice_sanjay
** Cell name: rcload_predp_d
** View name: schematic
************************************
.subckt rcload_predp_d in out
.prot FREELIB
%/X7879K<9>*)b:Q
%[Xd\%#Y<bXAyh-[y
y12h##VrXx3Y=YLY
e4Z68t2Y
.ends rcload_predp_d
