** End of subcircuit definition.
************************************
** Library name: rnr_spice_sanjay
** Cell name: rcload_predp_c
** View name: schematic
************************************
.subckt rcload_predp_c in out
.prot FREELIB
%/X7879K<9>*s>:Q
%[Xd\%#Y<bXAyjy[y
y12h##VrXx3Y=5+Y
e4Z68t2Y
.ends rcload_predp_c
