** End of subcircuit definition.
************************************
** Library name: rnr_spice_sanjay
** Cell name: rcload_predn_c
** View name: schematic
************************************
.subckt rcload_predn_c in out
.prot FREELIB
%/X7879K<9>*9b:Q
%[Xd\%#Y<bXAy$-[y
y12h##VrXx3YB]+Y
e4Z68t2Y
.ends rcload_predn_c
