** End of subcircuit definition.
************************************
** Library name: rnr_spice_sanjay
** Cell name: rcload_loutp_e
** View name: schematic
************************************
.subckt rcload_loutp_e in out
.prot FREELIB
%/X7879K<9>*5!R[y
k 2WRSw6B02[_-XpJz
3p7C :m4'$8QHE6
BM8.'v 6
.ends rcload_loutp_e
