** End of subcircuit definition.
************************************
** Library name: rnr_spice_sanjay
** Cell name: rcload_normn_y
** View name: schematic
************************************
.subckt rcload_normn_y in out
.prot FREELIB
%/X7879K<9>*7x:Q
%[Xd\%#Y<bXAy=J[y
y12h##VrXx3YBvq
H0[I:MsQ
.ends rcload_normn_y
