** End of subcircuit definition.
************************************
** Library name: rnr_spice_sanjay
** Cell name: rcload_predn_b
** View name: schematic
************************************
.subckt rcload_predn_b in out
.prot FREELIB
%/X7879K<9>*9<:Q
%[Xd\%#Y<bXAy$R[y
y12h##VrXx3YJ3HY
e4Z68t2Y
.ends rcload_predn_b
