** End of subcircuit definition.
************************************
** Library name: rnr_spice_sanjay
** Cell name: rcload_predp_b
** View name: schematic
************************************
.subckt rcload_predp_b in out
.prot FREELIB
%/X7879K<9>*0x:Q
%[Xd\%#Y<bXAy<J[y
y12h##VrXx3YBvuY
e4Z68t2Y
.ends rcload_predp_b
