** End of subcircuit definition.
************************************
** Library name: rnr_spice_sanjay
** Cell name: rcload_loutp_x
** View name: schematic
************************************
.subckt rcload_loutp_x in out
.prot FREELIB
%/X7879K<9>*;d8
/39.mj79k<9>*;D8
5(98Z$m$2:yAJ*[
+!+]6dJ[
.ends rcload_loutp_x
