** End of subcircuit definition.
************************************
** Library name: rnr_spice_sanjay
** Cell name: rcload_deloutn_d
** View name: schematic
************************************
.subckt rcload_deloutn_d in out
.prot FREELIB
%/X7879K<9>*s!u[y
k 2WRSw6B02[_;XWJz
3p7C :m4'$8Qup6
BM8.'v 6
.ends rcload_deloutn_d
