** End of subcircuit definition.
************************************
** Library name: rnr_spice_sanjay
** Cell name: rcload_predn_x
** View name: schematic
************************************
.subckt rcload_predn_x in out
.prot FREELIB
%/X7879K<9>*9$:Q
%[Xd\%#Y<bXAy$5[y
y12h##VrXx3YBU+Y
e4Z68t2Y
.ends rcload_predn_x
