** End of subcircuit definition.
************************************
** Library name: rnr_ref
** Cell name: ref_optinv
** View name: schematic
************************************
.subckt ref_optinv in inv inv_b out
.prot FREELIB
H]=3g\#M+Uah$U\U-[X48=qp:d$jy=#M2[ah$U*3-[Z
F8J#VrXx78+/F:w[2<9zw+o.u$uQm+uxLYX++W94 Y=#!<)10
'#-Wo=X78+#Y<bXp/9# uM02,_X c9i*P!Jj:0P*77$K-/Z
F8=#VrXx787d :\0u$#KV<9C*,#3wf)1-pi#!O) 2\9Q+Y
3$J$R*w!=-gx79;O9- v7*90Bx4Yu*u:RA:zXUwr%AH$Rz((6
eI77T! 98z$r*W6%P26\TK:da46=#=-/B:(7$;-/XM/_3Q
7]u2wrsW!=-2H##Yo%XI>MZWi)cIs7%((E1t$rD((94Uy=8
Xr=$3W%8
.ends ref_optinv
