** End of subcircuit definition.
************************************
** Library name: rnr_ref
** Cell name: ref_vinit0
** View name: schematic
************************************
.subckt ref_vinit0 node
.prot FREELIB
H0[I:MsQ
.ends ref_vinit0
