** End of subcircuit definition.
************************************
** Library name: rnr_ref
** Cell name: ref_mc2d1a_vdd
** View name: schematic
************************************
.subckt ref_mc2d1a_vdd a d d_b q q_b
.prot FREELIB
7O$nX.$W4C32_79;o9- V7*90bmd'7X((E j$,q+H[V2\Yq+:00*P7X57%a:Zj#M;30*P!u4y
3Mi_.$w49ngx79;O9- v7*90BMD'7x((e J$,Q+h[v2\yQ+:00*p7x57%A:zB34:D6F/_jXp(v0
'\\$49N2g7DW6b028\TKuMe2,_JxcIXlyx+pc9cz,_Jxm'V2\Yqp:00*P[
49+5N/$A/f:5X .-#Y<bXz>MZ903X4yx+UP9i*P!3U:d[4yx+3cIXMV_3WRba:L
)K 4]p2_7_s[9-u/79k<9[oW9KV79C*p!-4:RA:z=-wI=C*p!-J:0p*77$k-/z
F>#_F2%xN.-#%:\0u$+zk:=MD/\to:DA:zBrwf)1-7B#m+DA:zBUwr%AH$Rz((6
BM8.'v 6
.ends ref_mc2d1a_vdd
