** End of subcircuit definition.
************************************
** Library name: XI_MacrosLib
** Cell name: xi_aoi21
** View name: schematic
************************************
.subckt xi_aoi21 A1 A2 B Y
.prot FREELIB
H]=3g\#M+5a:$,\((9czg6:#+n23/_3Wi=3*P7X [C_78O<5<) 2,.[((9iIyx8
_I]=g 4\D9y0*77xT[)12,.0stw[!t8z(36
ezgb# 9x%Y$1-W6b02<9ZW+O.U$UqM+5Xly,\W+3a481/[!=g(:9#!o) 2\9q+y
3[;77pw'[xZt%-H:\0u$#KV<9C*,#[wf)IZ$#4(I==g 4\D9y02\yQP:00*p[
4 [9o2X79K<9-U/7\90bX4yU\f:ral87\O-d[/.dc Z*6U$rD(394Uyx8
o25 2E7[P:=2'Se#yO%xi>mzwI)CiG7%(f]xZ'_xT'c_78o<5<94 Y=#!<)10
'.0W+*7);70W6%P2<YDW2O.U$UqM2-Xly,*W+3a46-/[!=g(:9#!o) 2\9q+y
3$;57pw''xZt%;,:\p $.KV<9C*,.[wf)Ii$#4(I]=g 4\D9y02\yQP:00*p[
+!+]6dJ[
.ends xi_aoi21
