** End of subcircuit definition.
************************************
** Library name: XI_MacrosLib
** Cell name: xi_oai31
** View name: schematic
************************************
.subckt xi_oai31 A1 A2 A3 B Y
.prot FREELIB
H]=3g\#M2-a:$,*((9cIX6:#+n23/_3Wi]=*P7Xt'C_78O<5<) 2,#0((9izyx8
_I=3g 4\D9y0*77x ')12,#[stw[!t8z(36
eIX7PW[9- V79;o9$Ow9#M-d$/$,q=29[fyU*fqj8za0'K:0P*77$K-/Z
F61;w+*7)07[3:\p $+d;:]MD/7x(I]=23_%T:=E*,.[stw[!t8zwr%AH$Rz((6
eIgb# 9xuE$1-W+*7)079;o9$Ow9#M-d$;$,q=29[fyU*$qj8za0'K:0P*77$K-[Z
F613w89=H$#<2M(xPvy#TUm02,_xT'9I*3.# 7)CiG6:#+N23/7$;-[xm/_3q
7=3280sIw932<9ZW6b028\TK:da48-#=-r[28)qM+-D\H#2);bXMV_3WRba:L
)\$M9O2GJ# 9X/T$+zk:=MD/7x(I==23_% :=E*,#[stw[!t8zwr%AH$Rz(36
ezgb#::5%280sIw9-U/7\90bX4yU\$:ral87\O-d[;.dc Z*6U$rD(394Uy=8
o+5 2E7[P:=2')i#y<BxZ>mzwI)CZG7%(f=xZ'_x 'c_78o<5<94 YX#!<) 0
Zr\t;M70
.ends xi_oai31
