** End of subcircuit definition.
************************************
** Library name: XI_MacrosLib
** Cell name: xi_tgate_lvt
** View name: schematic
************************************
.subckt xi_tgate_lvt A C CB Y
.prot FREELIB
H]=3g\#M+)123#q+:=_78O<5<) 2,.q+:r$*P7*[!=g(:9qpy
3[H$2#/:5xP/9# Um0L<%#m-D[23_% :=E*8DC z*6u$Rd((94uYX8
o2[x#$s0w'9- v7*90Bx4Yu*wf)Ii$#4(2J8ZA0'k:0p*p7$k-/z
-\#*50Xz
.ends xi_tgate_lvt
