** End of subcircuit definition.
************************************
** Library name: XI_MacrosLib
** Cell name: xi_tgate
** View name: schematic
************************************
.subckt xi_tgate A C CB Y
.prot FREELIB
H]=3g\#M+)123#q+:=_78O<5<) 2,.q+:r$*P7*[!=g(:9qpy
3[H$2#/:5xP/9# Um02,_x :RAL87\o-=_78o<5<94 YX#!<)10
'.3W89>/$1#Yo%XI>MZWi)cI$,q=29[fy.:#+n23/7$;-/XM/_JQ
H0[I:MsQ
.ends xi_tgate
