** End of subcircuit definition.
************************************
** Library name: rnr_spice_sanjay
** Cell name: generic_load
** View name: schematic
************************************
.subckt generic_load rx tx vterm
.prot FREELIB
%YeAg.#579-U/7g(3/$0
J43IP9[(J=5W6b02:)#Y<bXxP_R+:xP*9xJx(/$28,q+H'V0
:9<5!*02J)# 9x Y$8qpH/1:>[
'279-'T8kW+*7h97'(P/Z
3:)#y *6o$84w;)v:l
!$ 2y.'l
.ends generic_load
