** End of subcircuit definition.
************************************
** Library name: rnr_iob
** Cell name: iob_obc_drv_d
** View name: schematic
************************************
.subckt iob_obc_drv_d io loc_vss loc_vcco opn opn_del opp opp_del
.prot FREELIB
7O['P7cv:M$z.Y<=:r.A.+ZK:r.A.+ZK:=md/%TOmUX4yI+Uw9i*P!VW+3aj$rD((94Uy=#Oo)1-shRW7ba:ZI3W7n> yx+3>IXfaSZ((E%S07\d%M[*5[
4 (98d$M* :r.A.+ZK:r.A.+ZK:=md/%TOmUX4yI+Uw9i*P!VW+3aj$rD((94Uy=#Oo)1-shRW7ba:ZI3W7n> yx+3>IXfaSZ((E%S07\d%M[*5[
4tc98d$M*t:r.A.+g/09id[69/%MXI>MZ203u)$UqhH'*23_JxcSXz'_;WR%ah$rZ((9e yx+3>IXf/_Jx)IV2'Og;-/B))<#OZK0*P!-IP9[![M\(c6
eO6%JW!MXd6./;9rXlwS/Y%K.23MgS6K>d$.kv<x.fsj#M-2Bj(7%((E%v$#4(m94 y=#!<)12'Yq+HU/+$)Z((EJ+074d%%a:ZjV4:3gA/_Jxc:V28Ogv+)%0
Zr\t;M70
.ends iob_obc_drv_d
