** End of subcircuit definition.
************************************
** Library name: rnr_iob
** Cell name: iob_ibuf_mux
** View name: schematic
************************************
.subckt iob_ibuf_mux i0 i1 i2 out s0 s0b s1 s1b s2 s2b
.prot FREELIB
7O[h07T! 90:$4JW6b028\TK:dahZb5WF)1-PI#!o)12\9q+y
3MZ77t! 90H$43w6B028\tk:DAHzB5wf)1-pi#!O)12\9Q+Y
3MZ57t! 90J$4-w6B028\tk:DAHzB5wf)1-pi#!O)12\9Q+Y
3Mi7<#VrXxup-##(9- v7*90Bx4YB+4M9I*p!jJ:0p*p7$k-/z
F>.3w0072/=0w![xPvy#TUm02,_-XpuxLYX++W94 YX#!<)10
'\*U:M4'$9-f:W%2<YDW2O.U$UqUHIu23_Jx($XMV_JWRba:L
!$ 2y.'l
.ends iob_ibuf_mux
