** End of subcircuit definition.
************************************
** Library name: rnr_spice_sanjay
** Cell name: iob_outblk_cz_sim_orig
** View name: schematic
************************************
.subckt iob_outblk_cz_sim_orig lvds<0> pad refio cbnet<35> cbnet<34>
+cbnet<33> cbnet<32> cbnet<31> cbnet<30> cbnet<29> cbnet<28>
+cbnet<27> cbnet<26> cbnet<25> cbnet<24> cbnet<23> cbnet<22>
+cbnet<21> cbnet<20> cbnet<19> cbnet<18> cbnet<17> cbnet<16>
+cbnet<15> cbnet<14> cbnet<13> cbnet<12> cbnet<11> cbnet<10>
+cbnet<9> cbnet<8> cbnet<7> cbnet<6> cbnet<5> cbnet<4> cbnet<3>
+cbnet<2> cbnet<1> cbnet<0> cfg_spd extest ff_b fst_cfg_b fttlo
+por_b_vcco ts_b vccaux_loc vcco_loc por_b_vccaux tsb_s<0> pte_rcfg
+cnnd<13> cnnd<12> cnnd<11> cnnd<10> cnnd<9> cnnd<8> cnnd<7>
+cnnd<6> cnnd<5> cnnd<4> cnnd<3> cnnd<2> cnnd<1> cnnd<0> cnpd<19>
+cnpd<18> cnpd<17> cnpd<16> cnpd<15> cnpd<14> cnpd<13> cnpd<12>
+cnpd<11> cnpd<10> cnpd<9> cnpd<8> cnpd<7> cnpd<6> cnpd<5> cnpd<4>
+cnpd<3> cnpd<2> cnpd<1> cnpd<0>
.prot FREELIB
7W.MJ-$[qKk:$S\ oh )%7g +%Rh5p#/+=PC7=1W%=[ #=JE:K[zVW]E:K[zVWyEy
8>Z8yMJv9>Z8yMHv9>Z8yM4v9>Z8yMiv9>Z8yM3v9>Z8yMuv9>Z8yMPv9>Z8yM+v6
:A8.D13()2[#*;_[HQ$S\toh t%7g 2%Rh9p#/+]PC7<1W%=$ #=VE:K[IVW33V6
:A8.D13')2[#*;_[ Q$S\toh :%7g 2%RE%7g 2%Rv%7g 2%Rt%7g 2%RY%7g 2%R+%[
a/+]PC)p#/+]PCsp#/+]PC5p#/+]PC7p#/+]PCPp#;!b=G87D#<-Dz$YcK%C[0
oYcKoC[2V4Z)q=X H9PS+9P7/1/t:%8UX6*WoW0A..#;!bPG67D#<*DI$d:S[9g'3x8
_zXIH$oS=C9-u/79k<9-u/79k<9-a[1$oQR.a$+G/0cID[79;O9- v7\kf*C:$#z=9D 0
o#Z=9d%289%)iUXz/,<M>9[U30X4:]= $.D)Fb2l.+g/'0e26Y<=<*iG<Sgvy
8$ t,z)f-dP[s[!79$ t,z)f-dP[stw2R-L/0%s6k>;\)#Tf\Iut,0s6k>Dl
T*V;c3g<sG$r3xiW8/FQ\>aW7*kf*C:$.z=9D 269%)I'xi/,<mM9$u30xi:]0Lturq
$]0lTU/=0d-A[79K<9- V7sKq-X'/-/K_/)2HM0S007/\d//JC07>6T5!nZ
F[D2s<]p:$.z=9D 269%)I'xZ/,<m39[u30xu:k3Zt%MPp+xax#<2_[/q$s0 9XrHSP8
_%-[(jw3uv9>/80S13[)2[-\) H :%7GF+*7c;P#/[=2'#>1w%-[(jwUe:k3Zt%MHv6
:AX#<2_I)2[-\) h/Q$S0 9xR)%7gf+*7C5p#/[=2'#=1W%-[(JWJE:K_!.9*;y
82Fj0z2:J0'.s:DQ-xP[s[!7cID[7*V;c3g<sG$r3xZ/,<mM9$u30x3:=0Ltujq
$]0lTUJWZxi:$Os=39$U30XI:=0lTUVW2bi(,<# <r240722F'XI/,<Mqr.4<SgQ
$]7(.8g[Z98dX6g[ZC0IV[
4/TnD7w9s;(9P7/1/ :%8Ug6*WoW0/.##;!b3G67D#<KDz$YcK%C$2V4Z;q=X H9DS26
: H9<S+9P7/2/ :r- /WJE:K3zT%m3>+XAX#<2_UuQ$S0 9xR)5p#/[=2'#j3Ey
8>/80S1M/)2[-\) H%e%7GF+*7c5>1w%-[(jw-Jv9>/80S1C2)2[-\) H%+%[
a/[=2'#bVE:K3zT%mUm+XAX#<2_'%Q$S0 9xRj7p#/[=2'#bJE:K3zT%mp#+Z
$[-\) H V%7GF+*7c7i1w%-[(jw3Hv9_'j,tw+*7HS>M+v9[(j=;L_[)280SPMsrJ%[
a59j8d$YcK9C$2 9sS%jgGX7*29C6A O#Y%K=M'6%v%9$d:60S6K>;\)8
_2R-L/0%s6k>;\)#Tf\Iut,0s6k>D$+G/0cID[7*V;c3g<sGV:]p(39<=Q\>aGR4q
$]P(39<=[C-A[1$O:]P(39<=q\>Aw7*;9r0(3-/Y%K.2HM0S%jgGHMZ2oC>xL
!$ 2y.'l
.ends iob_outblk_cz_sim_orig
