** End of subcircuit definition.
************************************
** Library name: rnr_iob
** Cell name: iob_schmitt
** View name: schematic
************************************
.subckt iob_schmitt hysb in onb out_comp out_true vcco
.prot FREELIB
7= h$#<2w:X7.-#Y<bXp/9# uM0'w);3:dahZxRWF)1-)7\O-IXMV_JWRba:L
)\4E9[(jiYw!=xP/9#y<BxZ>mz203U)$uQih(xLYX+i:=E*97$;-/xm/_3q
7= j$4/f:M[/$+ZK:\0U$#kv<x.fsj#M-[Xlyx+I:0P*P7$K-/Z
F8B#y<BxP/9#y<BxP/9# Um0'W);3:DAszB#=-/bs$#4(C94 Y33wrBAHl
)\H(9[(jejw!c3280SJE9-u/7\90B7D'J;wI)U-0=#=-/bs$#4(M94 Y=#!<) 0
'#Rj:WD/$4\W+*7t*79K<9[Ow9sv7Uu2,_Vx#9i*P!VW+3aY$rD((94Uy=8
oU] 2WRSs y4($#<23'v2<ydw6%p26\tk:DAHz$]wf)1-pi# 7)/2\yQP:00*7[
492/Xd\%//0O$2<9ZW+*7h5<#Yo%XI>MZWi) -97%((E1t$#4(c94 yx#!<) 0
'.JW+*7h5<# 9x*S$+D;:\P $.kv<9c*P!5p:ra:ZxuW+3ahP7$;-[XM/_3Q
7]/2<YDW6%P2<YDW6%P26\TK:dahZj3WF)1-PI#!o)12\9q+y
3MZ77t! c73\0# 9X J079k<9-u/7\90Bx4YX+Lp9I*p!jJ:=E*)7$;-[xm/_3q
7O[:$M$2qK.O679;o9[(J=-4:\0U$#kv<9c*7!-WF)1-PI#!o) 2\9q+y
3[:$#<23'v280SJ>9-u/79k<9[oW9#m-/bV)<#=-/b:(7\o-[12\yQ+:00*7[
4tm9[(JEJWa<0/$+g/09-A[M#tuM0'w);3:daSZb#=-/Bj*7\O-'XMV_.p:00*7[
4t3'XzT%uI:WD/$+D;:\P $.kv<x.fsj#M-'Bj07%((E%v$#4(3/XMV_JWRbahL
)*HM98g[7t [9-a[m#y%k.26\tk mE)S7x(Meh+$,Q+h'h28)QP(94 YX#!<) 0
'.Rh:WD/$4\W!C>2<Sgv:]md/%TOmUX4yj#=-/Bj*7\O-$XMV_3WRbahL
!$ 2y.'l
.ends iob_schmitt
