** End of subcircuit definition.
************************************
** Library name: rnr_spice_sanjay
** Cell name: iob_obc_del_n_b
** View name: schematic
************************************
.subckt iob_obc_del_n_b in loc_vss loc_vccaux out
.prot FREELIB
7O[:$nBW!=XlwS/Y<bXlwS/Y<bXz>MZ203%+$UqpH'Xlyx+U>94 yx#!<)10
'\\p:M4'$nBWFM>G<9ZWFM>G<9ZW+O.UJM4UP9c*7!JWF)1-5h#!o)12\9q+y
3Mi77b>:w[23mGs6k>;\)#=0kdP[s[!79$oW9SV7'v2,_3wf)1-S7$;-/xm/_jq
7O$:$M$2:_k23MgS6K>;\)#=0KDp[S[!79$Ow9sv7'V2,_-x>9i*P!-I:=e*57$;-! 2\9qpy
e4Z68t2Y
.ends iob_obc_del_n_b
