** End of subcircuit definition.
************************************
** Library name: rnr_iob
** Cell name: iob_comparator
** View name: schematic
************************************
.subckt iob_comparator enable out pad_in ref_in vcci
.prot FREELIB
7=ut;7Dp:Y2\779K<9-U/7\90b7d'bRWi)%-P7%(3E%2\Yq+:00*P[
4 P/1280s,#92zg-%):Y2\779K<9[Ow9sv7'V2,_ux>UXlyx+U)94 yx#!<)10
'#;je93h$.[;qW[2V=#Y<bXz>MZ203%+$UqpH/ 23_3xc9[fyb#!o)\h$rZ(36
ezsIuW+*7hsI#59jD787Dp:\0U$#kv<x.f5<#M-[B:77%(3E%28)qU:0P*==#!<) 0
'#gpc/XzT%3p396( =#Y<bXp/9# uM0'w)-4:dahZx3WF) -57\O-'XMV_.p:00*7[
4 %[%j$S3W;*_h$+ZK:\0U$#kv<x.f5<#M-[B:77%(3E%28)qU:0P*==#!<) 0
'#gpc[X;77')T[XA779K<9[Ow9sv7'V2,_3x([Xly=+U:=e*57$;-! 2\9qpy
3[)*<# 9Xfe$8<[39[(j=3P:\0u$#KV<X.F5<#m-[b:77%(3e%28)Qu:0p*==#!<) 0
'\*2(9[(JE]W+*7h9h#59j 2<Sg#:]md/%TOcIX4yI++c9i*P!-h:0P*P7$K-/Z
F6JU4:* 2:0:P:\>ah79/%wxi>mz203%+$uQih/ 23_3XC94 YX#!<)10
'.;jc9[(J=;j:Y2\779/%WXp[ScW2O.UJM4UP9c*5!JWF) -57\O-'XMV_.p:00*7[
4t3[*280s,#96( =# 9x )(79/%WXI>MZ203%+$UqUH/Xly=+U:=e*57$;-! 2\9qpy
3$H7e#$396( =#F39-a[4#TUm0'W)-4:DAJzX#=-[bJ$#4(C94 Y33wrBAHl
)*43ix3tD3w9==/30#y%k82<sG#:]MD/%toCix4YX+3E9I*p!-H:0p*p7$k-/z
F6=3L:- 2:0:P:\>ah79/%wxi>mz203%+$uQuh/xLY=+u:=E*57$;-! 2\9QPY
3$)($#/39$;v6C :* 2<sG#:]MD/%toCix4YB++:RAHzB# 7)%2\yQ6394uY=8
o2u*s$#<23[ 2:0:s!=x(779/%wxi>mz203%+$uQuh/xLY=+u:=E*57$;-! 2\9QPY
38J$#<23212<ydw0072'4/2!=-2,#QPh: :$,\((e%sp7\[!=G(:9QP:D$*5!Y+(6
:l6_Jxc:126dc Z*6Uy=8
o!i H$0\$[R22<sG#:=2'7$vw7wd'h#9wI=A:zJY+:R[*p!-i(9[\h#2);BAHl
TxT-/b)*X#=2)1-5Hjw2J8ZA0'k-[z
Fhe#$39-a[4# 9X yp74#QX8Z<7x -/bTpX#=+)1-5Hjw+J8ZA0'k-[x46_3X>[10
o,*((E%SP7*[!=g(:9qpy
e4Z68t2Y
.ends iob_comparator
