** End of subcircuit definition.
************************************
** Library name: rnr_spice_sanjay
** Cell name: iob_tsb_mux21
** View name: schematic
************************************
.subckt iob_tsb_mux21 i0 i1 s s_b x
.prot FREELIB
H]=3g\#M2)1-57X -/BjL
)KT(9E2/7C+:\p $.KV<9C*,.#=-/b:(7$;-/xm/_jq
7O$h$)#Kq-X7779;o9$Ow9#M-d$23_Jx($XMV_JWRba:L
)K C9E2/7CP:\0u$#KV<9C*,##=-/b:(7$;-/xm/_jq
7O[:$)#Kq-X7P79K<9[Ow9#M-d[23_Jx($XMV_JWRba:L
!$ 2y.'l
.ends iob_tsb_mux21
