** End of subcircuit definition.
************************************
** Library name: rnr_iob
** Cell name: iob_obc_drv_e
** View name: schematic
************************************
.subckt iob_obc_drv_e io loc_vss loc_vcco opn opn_del opp opp_del
.prot FREELIB
7=12HM#v2=XlwS/Y<bXlwS/Y<bXz>MZ203u)$UqjH'*23_Jx>94 y=#!<)12'Yq+HU/+$)Z((E*h$)2/o)1-shRW7n>Uyx+U>IXzaST -'Z
F>#S+:w.2W.\sO*I23mGs6B023mGs6B028\tk mE)S7x(We%T$,Q+h:xmv_3wrBA:$)d((eUs074k-/bT774D%%A:zJv4:3Ga/_jXC:v28oGV+)%0
'.-W!MXd6.#=0KDp[STWFM>G<Sgv:]md/%TOmUX4y=-xP:Xlyx+Ue94 y=#!<)12'Yq+HU/+$)Z((EJ+074d%%a:ZjV4:3gA/_Jxc:V28Ogv+)%0
'\*2(98d$M*tq%2l$,T/q\>Aw7%v%C-A[M#tuM0'w);3:dah5!RI:ra:ZbyWR%ah$rZ((9e yx+3>IXf/_Jx)IV2'Og;-/B))<#OZK0*P!-IP9[![M\(c6
BM8.'v 6
.ends iob_obc_drv_e
