** End of subcircuit definition.
************************************
** Library name: madan_work
** Cell name: ioi_ddrmux
** View name: schematic
************************************
.subckt ioi_ddrmux out latch_en clk1_b clk2_b ghigh_b in1 in2 in3 por_b s1
+s2 sr1 in4 clk3_b sr1_fdbk s3 s4
.prot FREELIB
%/XzT%3,(9-U/7g(PE%\L
s3u:=2'SX;w6B02[_rJ(e1;l
svw<*IJ.-#y<BxaYij+h/=0
[=]W+*7j0<#Y<bXAy=+IT6
>j97\) 'F+$+ZK:Ka+9x++(5Z
a97z)fuxP/9#/-[be(D8
/p90(3J/F:\0u$sQJ(/b:G[
gpm9[(Jb]j:\0U$Sq4(/B:g[
g,:Ki]sY%::\0U$Sq,e/B:P18
/E9>LMBd=89-u/7G(#:1-pX[q
%$XA3G3;F<Xp/9#/-(%:ZxJ$y
k%2/0%PQ-xP/9#/-$1:zX[q
%[XUT,3W6b02[_3x#'_0
[=5W+*7j0=#Y<bXAyhR+H/1;L
s;w<*IJ$+zk:kAHzeU[Y
k%+$#<2C'v2<9zw%)v-pD8
/3:xZt%-4M9-u/7G(3e/\l
s3L:=2'5i;w6B02[_Uu#e1:p18
/C$xZt%-,M9-u/7G(p[U-pX[q
%'u280s3($Xp/9#/-[BS [
gUc9[(Jbup:\0U$Sq4c/B:g[
gU>9[(JbVj:\0U$SqlP/B:P18
/C[xZt%-H#9-u/7G(ps1-p18
/3$xZt%-,39-u/7G(Wu1-pX[q
%[1280sU#(Xp/9#/-$V:Zx[Q
%[ 280s3([Xp/9#/-I1:ZxJ$y
k%:$#<2C$v2<9zw%)/+p!j+'6
>j*7\) 'V:$+ZK:Kav(x++(5Z
Fh=Uu:w[H$9<=390(3=/F:=2'7ejw7wd'A1S)QR-'$u\(3e%:p7% -/b:(X8
_+J8ZA0'k-[x46_3Xp/123.Q+h/*:$.:#+N23/_3q
7W t07c >90S$9VS[9[(J=]+:38GJO[29CipJ7X -[BjPx#=+)1-PIJW+j8za0'K-[Z
$,.QPhi1:$,*((e1Tp7*[!=G(:9QPY
38H(J##+'xut,-w<*IJ.-# 9X ep74#QXG;j0/=6Xx48_3XC/123#Q+h/*:l
T\[!=G(:9QP:D$*7!r+(9IiYX++W/xi 4\D9y0*7[
4#3$/2H#;W<*i)$9<=mC3280sp#/XfH6sd'x2G3+sWi=ahZbJ+:r[*P!Jj(6
:z 4\d9Y0*77Xt-[B+Px#=2)1-PIJW2j8za0'K-[Z
F8sjw+*7J5<# 9X ep79k<9-u/7\90BIPj7x(Ce/23_jX($xmv_jwrBA:l
)\P:=2'5=Uw6%p2<9zw6B028\tk:DA:zB#=-/bJ$Rd((94uYX8
o+/xZt%3,(9[(jB-4:=2'5=Uw6B028\tk:DA:zB#=-/bH*7$;-/xm/_jq
7=%280sUcIXzT%-Um9-U/79K<9[Ow9#M-/Bj$,q+H/H2\Yq+:00*P[
4t(9[(JbV+:\0U$+D;:\P $.kv<9c*P!-WF)1-57$;-/XM/_JQ
7]/280sUcIXzT%3,(9[(Jb;j:\P $.kv<9c*5!5WF)1-PI# 7)%2\Yq6394Uy=8
o2uxZt%-3W9[(jB-3:\p $+d;:]MD/7x(CeU23_jX($xZ'_vwr%A577$k-[z
F6=# 9X ep7\) '%+$#<2C:12<ydw2o.u$uQ+h'xLYX+Pp94 YX#!<)10
'433w9[(Jj-h:=2'5I;W+*7j)h#O!C[d:b#M+)1-5xJWF=a:Zxu+:=_78O<5<) 0
oU*((E/:P7%t-/B:(x#tTW[!T8Z(36
e7(h# 9x%v(7\) 'FE$#<2c:*2'4/ 0Y%2,#q+H'1:$,\((E1tP7\[!=g(:9qpy
8CiYX+i(/xL6_jX($126DC z*6uY=8
o!$U280S3CuxZt%-,39[(jBr+:38g8m'u:D[*p!-+(9IZYX++W/xZ 4\D9y0*7[
aM2)1-)xJWF]a:Zxu+:]_78O<5<) 0
'4-+c9[(JjJj:=2'5<3W7WD78+#M+)1-5xJWF=a:Zxu+:=_78O<5<) 2,.q+H'1:L
T%T-/b:(X#Ttw[!t8z(36
e75IRW%r,h.-# 9x%+s74#qW[p$U\((E/:P7% -/B:(x# TW[!T8Z(39cIyx+l(/Z
$3.Q+h/*:$.:#+N23/_3q
7W +*7g=.UD/$#<2cIV2'4/#+\X48_Jx>/123#q+H/*:$#:#+n23/_3Wi]a:Z>J+y
8IiYX++W/xi 4\D9y0*7[
4#32J2/0%p:b2l760W7WD78+#M+)1-)xJWF=a:Zxu+:=_78O<5<) 2,.q+H21:L
T%T-/b:(X#Ttw[!t8z(36
e7VY'vRxD78+# 9x%j07T! 9e7.4\Y:d[*7!V4(9izyx++w/Xz 4\d9Y0*)7Xt-'BS)x8
_f]A:zXU+:]_78o<5<)v0
'43h#90(3j#K9ruGX74#qW[p$U\((E/:P7% -/B:(x# TW[!T8Z(39cIyx+h(/Z
$3.Q+h/*:$.:#+N23/_3q
7W Y*7Z)F'XUT,-S[9e7.4\Y:d[*P!V+(9izyx++w/Xz 4\d9Y0*77Xt-/BYPx8
_f]A:zXU+:]_78o<5<) 0
'4-p)90S$9VS[9e7.4\Y:d[*P!V+(9izyx++w/Xz 4\d9Y0*77Xt-/BYPx#=2)1-PIJQ
$]_78O<5<) 0
'43Uw9-U/7\) 'Jt$)cS!=-2,#q+H'1:$,\((E vP7\[!=g(:9qp:d$*P!-+(9iIyx+pe/Z
$6DC z*6uY=8
o!' H$#<2C$v280Su)(xFh6C 69CZYX+u(/xL8_jX3s128DC z*6uY=#m2)1-5Xjq
$r$*P!3l(9$\H#2);bahL
)Cu3uxZt%-H#9[(jBUP:38gh#9wI=A:zBj+:R[*p!3L(9[\h#2);BAH$u*((e%:p[
a=2)1-7>JW2j8za0'K-[Z
FhB3i:=2'5i3w+*7J(J#o!c8Z<7x -/bJpX#=+)1-7>jw+J8ZA0'k-[x46_jXC/10
o,*((E vP7*[!=g(:9qpy
38J7<# 9X%+07\) '*+$)Cs!=-2,#Q+h'1:$,\((e1Tp7\[!=G(:9QP:D$*p!-+(6
:l6_Jx($126dc Z*6Uy=8
o![U)$#<2C2*280SuW$xFh6C 69CZYX+u(/xL8_jX3s128DC z*6uY=#m2)1-5Xjq
$r$*P!3l(9$\H#2);bahL
)CL#9I;jshs9=xZt%-J#9E7.4\y:D[*p!-+(9IZYX++W/xZ 4\D9y0*77xT-/bJpX8
_f]A:zXU+:]_78o<5<) 0
'43,e90377Z53C_ XG#O!C8z<7X -/BjPx#=+)1-PIJW+j8za0'K-[X46_Jxc/10
o,*((E1tP7*[!=g(:9qpy
38e;79k<9[(jBY3:38gh#9wI=A:zBj+:R[*p!3L(9[\h#2);BAH$u*((e%:p7%T-/bH*X8
_2J8ZA0'k-[z
Fh=]i:].3.-# 9X%JS74#Qw[P$u\((e%:p7% -/b:(X# tw[!t8z(39CiYX+u(/z
$3.Q+h/*:$.:#+N23/_3q
7W*t$93W+*7j*I#O!C8z<7X -/BjPx#=+)1-PIJW+j8za0'K-[X46_Jxc/123.q+H/*:L
T*[!=G(:9QPY
38e77\) uUJ$9'sf[xFh6C 69CZYX+u(/xL8_jX($128DC z*6uY=#m2)1-5Xjq
$r$*P!Jj(9$\H#2);bahL
)Cu(uxZt%-,M9[(jB]P:38gh#9wI=A:zBj+:R[*p!3L(9[\h#2);BAH$u*((e%:p[
a=2)1-7>JW2j8za0'K-[Z
FhBjJ:=2'5erw+*7J;J#o!c8Z<7x -/bJpX#=+)1-7>jw+J8ZA0'k-[x46_jXC/10
o,*((E vP7*[!=g(:9qpy
38Jpe# 9X%+77\) 'f+$)Cs!=-2,#Q+h'1:$,\((e Vp7\[!=G(:9QP:D$*p!-+(6
:l6_Jx3S126dc Z*6Uy=8
o![ve$#<2CiU280Su#$xFh6C 69CZYX+u(/xL8_jX($128DC z*6uY=#m2)1-5Xjq
$r$*P!Jj(9$\H#2);bahL
)Cu(2xZt%;+39[(jB],:38gh#9wI=A:zBj+:R[*p!3L(9[\h#2);BAH$u*((e%:p[
a=2)1-7>JW2j8za0'K-[Z
FhBj4:=2'SX;w+*7)p=#o!c8Z<7x -/bJpX#=+)1-7>jw+J8ZA0'k-[x46_jXC/10
o,*((E vP7*[!=g(:9qpy
38JpH# 9X%e(7\) u1)$)Cs!=-2,#Q+h'1:$,\((e Vp7\[!=G(:9QP:D$*p!-+(6
:l6_Jx3S126dc Z*6Uy=8
o![ J$#<2M[ 280S3(ixFh6C 69CZYX+u(/xL8_jX3s128DC z*6uY=#m2)1-5Xjq
$r$*P!3l(9$\H#2);bahL
)CPp$xa3g-s[9[(jJjJ:38gh#9wI=A:zHj+:R[*p!jJ(9[\h#2);BAH$u*((eh:p[
a=2)1-PIJW2j8za0'K-[Z
Fh=j,:=2'5>;w+*7)pe#o!c8Z<7x -/bJpX#=+)1-7>jw+J8ZA0'k-[x46_jXC/10
o,*((E vP7*[!=g(:9qpy
38H7=#y<BxZt%;P39E7.4\y:D[*p!-+(9IZYX+PE/xZ 4\D9y0*77xT-/bJpX#=2)1-7>jq
$]_78O<5<) 0
'434)9>lmjD=89- V7Z)FUXfH6\$+%%f$U\U-/BtPx#=+'a:Zxu+:d[j.dc Z*6Uy=8
_I= *p!U+(9IZ7_jX($12,#3stw[!t8z(39Ci7_jX)/123.3((e1Tp[
aM2[D\H#2);bah$U*U-/BYPx#=2'a:Zxu+:d$j.dc Z*6Uy=8
o!s%2[,WPORO2/8/=390(3=#o!c[;8y-o:D[JYX+J(/xL8BQ+h/*:$u\uQJ8ZA0'k-[z
$,#3((e*:p7% 3)1-pijwI= g 4\D9y0*77xT3)1-9Xjwf] *p!jJ(6
:46=/[!=g(:9qp:d$jyx+h(/Xl6bq+H/*:$U*Uqj8za0'K-[Z
Fh>;w%R,Jv,pw6%p2/0%u:38g81\;C3x48BQ+h$1:$,\u-/b:(X#m+'d\h#2);BAHl
Tx 3)1-(Xjwf= *p!jJ(9CZ76:#+N23/_3wI] *p!5+(9Ii7_jX($10
oU*pqj8za0'K-[X46bq+H21:$,*U-/B:(x#M2'D\H#2);bahL
)Cu3$xu57z53c_ xg# 9XUJS74#Q==ZvB#m+)1-*Xjwf=A:zXU+:=_78o<5<) 0
oU*((EJ:P7%t-/B:(x#tTW[!T8Z(36
e77E]W<UXU:=/[o-,280s3c2XfH6\$+%%2,#q+HS1:$,\((E1tP7\[!=g(:9qpy
8CiYX+H(/xL6_jX($126DC z*6uY=8
o![Uy$#<2Civ280Su>:xa3g;;f<xFh6\$+%%2,#Q+hs1:$,\((e1Tp7\[!=G(:9QPY
8CiYX+H(/xL6_jX($126DC z*6uY=8
o!sh280SuW(xu:=/[O-,280S3M'xFh6\$+%%2,#Q+h:1:$,\((e1Tp7\[!=G(:9QPY
8CiYX+i(/xL6_jX($126DC z*6uY=8
o!' J$#<2M/*280Sup/xa3g-;f<xFh6\$+%%2,#Q+hs1:$,\((e1Tp7\[!=G(:9QPY
8CiYX+H(/xL6_jX($126DC z*6uY=8
o!'1V$#<2CiU280Su>$xa3g3;f<xFh6\$+%%2,#Q+hij:$,\((e1Tp7\[!=G(:9QPY
8CiYX+H(/xL6_jX($126DC z*6uY=8
Xr=$3W%8
.ends ioi_ddrmux
