** End of subcircuit definition.
************************************
** Library name: rnr_ioi
** Cell name: ioi_sddr_ff2
** View name: schematic
************************************
.subckt ioi_sddr_ff2 ce_b clk_b d gsr qmbb_out qs1_fb rdq_in rev sr srq
+srselq_b synchq
.prot FREELIB
7Wu+77DW+*7h(h# 9x ts7D$ 5XfH6sd'x2G3+sWi=aj$,\((E1tP7\[!=g(:9qp:d$*7[
a=2)1-PIJW2j8za0'K-[Z
FhJru:%='G7G=.c32[,WwO]xFh6SD'X2g3+SwI=AH$,\((e1Tp7\[!=G(:9QP:D$*7[
a=2)1-PIJW2j8za0'K-[Z
FhJr3:%$2:0:s6w[7jX8
o!uvs$y[2'96( 69#+w7:l
)C3#ix3va/#+9Gu:7\) [*T$#<23'12'4/2z57($u\((e%:p7% -/b:(X# tw[!t8z(36
:46_Jxc/123.q+H/*:$.:#+n23/_3Q
7Wu)*7')6903/0%%q-XU:9<=49[(J=JI:38GJO[299czyx+U(/Xl8_Jx($10
o#:#+n23/_3Wi]a:ZbJ+:r$*P!Jj(9$\H#2);bahL
)C3M(xZt%3+#9>LM7G=.c32v.#o!c7!G%<wI=A:zBj+:R[*p!jJ(9[\h#2);BAHl
TxT-/bJpX#=2)1-pijw2J8ZA0'k-[z
FhJ]P:50#8s/;'X=gx7z54903_60w4o32'4/2z57($u\((e%:p7% -/b:(X8
_+J8ZA0'k-[x46_jXC/123.Q+h/*:$.:#+N23/_3q
7WuS77_9:b6n.-#K;>XzT%3+#9e7.%2$ *X48_Jxc/123#q+H/*:$#:#+n23/_3Q
$d$*P!-+(9iIyx++w/XI 4\d9Y0*7[
4#m:u280sp(:XzT%3jw9gU:7\) [%:$)cS n='T7X -/BjPx#=+)1-PIJW+j8za0'K-[Z
$,.Q+h'1:$,*((e1Tp7*[!=G(:9QPY
38))H#$<<[a.y[2'903_7z54c32v.#o!c7!G%<wI=A:zHj+:R[*p!jJ(9[\h#2);BAHl
TxT-/bspX#=2)1-pijw2J8ZA0'k-[z
FhJv4:=2'7B]w%*d/$#<23i*2v1S$:38gjo[299CZYX+L(/xL8_jX($128DC z*6uY=8
_I]A:z>j+:R$*p!jJ(9$\h#2);BAHl
)C3>2xZt%33M9[(j=ri:=2'7HYw+*7H5e#o!c7!G%<wI=A:z>j+:R[*p!jJ(6
:z 4\d9Y0*77Xt-/BvPx#=2)1-PIJW2j8za0'K-[Z
FhJv,:B62/8z)f>xu:9<=4c3280SP(:xFh6SD'X22,#Q+h'1:$,\((e1Tp7\[!=G(:9QPY
8CiYX+u(/xL6_jX($126DC z*6uY=8
oU]j2v1S$:=2'7H]w+*7H(<#yO%xi>mzwI)1-)7%((e1T$Rd((94uYX8
oU=U2v1S$:=2'7HUw+*7H(<#y<BxZ>mzwI)1-)7%((e1T$Rd((94uYX8
o!ujH$9p %Fn280SP>sxZt%3i#9E7.#[ O'x48_jXC/123#Q+h/*:$#:#+N23/_3q
$d$*P!-+(9iIyx++w/XI 4\d9Y0*7[
4#m2%2/8#59\X!/8# 9x +)74#q=.3s7X -/BjPx#=+)1-PIJW+j8za0'K-[X46_Jxe/10
o,*((E1tP7*[!=g(:9qpy
38);B#$<<[a.y[2'9=uE#GsO57;.-#o!c8Z<7x -/b)0X#=+)1-pijw+J8ZA0'k-[z
$,.Q+h$1:$,*((e1Tp7*[!=G(:9QPY
38)9<#/9c3280SPp$xFh6C 69CZYX+u(/xL8_jX($128DC z*6uY=#m2)1-5Xjq
$r$*P!Jj(9$\H#2);bahL
)C3)2xZt%3Jp9[(j=r,:38gh#9wI=A:zBj+:R[*p!jJ(9[\h#2);BAH$u*((e/:p[
a=2)1-PIJW2j8za0'K-[Z
FhJ5J:=2'7<]w'BOZ[6d$ 5xFh6C 69CZYX+3C/xL8_jX($128DC z*6uY=#m2)1-SBjq
$r$*P!Jj(9$\H#2);bahL
)C3)(xa3g/F:kI]$)Cs!=-2,#Q+h:v:$,\((e1Tp7\[!=G(:9QP:D$*7!-+(9IiYX++W/z
$6DC z*6uY=8
o!u*J$y*w4o32'4/#+\x48_jXE/123#Q+h/*:$#:#+N23/_3wI]AJ$,*((e1Tp[
atTW[!T8Z(36
e7sI;W<YN2/8_S[9e7.4\Y:d[*P!-+(9izyx++w/Xz 4\d9Y0*77Xt-/BYPx#=2)1-PIJQ
$]_78O<5<) 0
'4;j>9NOX7_9:38GH#9Wi=a:Zh5+:r[*P!Jj(9[\H#2);bah$U*((E/YP7%t-/B:(x8
_2J8ZA0'k-[z
FhJUH:=2'7<vw+*7H)>#o!c8Z<7x -/bs9X#=+)1-pijw+J8ZA0'k-[x46_jX>210
o,*((E1tP7*[!=g(:9qpy
38)(i# 9X T)7\) [*)$)Cs!=-2,#Q+h:j:$,\((e1Tp7\[!=G(:9QP:D$*p!vH(6
:l6_Jx($126dc Z*6Uy=8
o!u*V$#<23'1280SPWixFh6C 69CZYX+H>/xL8_jX($128DC z*6uY=#m2)1-)Xjq
$r$*P!Jj(9$\H#2);bahL
)C3E/x!/8# 9X T(74#Qw[P$u\((e%:p7% -/b:(X# tw[!t8z(39CiYX+u(/z
$3.Q+h/*:$.:#+N23/_3q
7Wuv77\) [/E$#<23:*2'4/#+\X48_Jxc/123#q+H/*:$#:#+n23/_3Wi]a:ZbJ+y
8IiYX++W/xi 4\D9y0*7[
4#m(*280spe'XzT%33m9e7.4\Y:d[*P!5+(9izyx++w/Xz 4\d9Y0*77Xt-[BjPx8
_f]A:zXU+:]_78o<5<) 0
'4;,(903/0%%q-XU:9<=49e7.4\Y:d[*P!-+(9izyx++w/Xz 4\d9Y0*77Xt-/BjPx8
_f]A:zXU+:]_78o<5<) 0
'4;,>9NU76:f:=2'7>-W7WD78+#M+)1-0xJWF=a:Zxu+:=_78O<5<) 2,.qpH'1:L
T%T-/b:(X#Ttw[!t8z(36
e7s>yW4O32_\0fqM4'$)cS!=-2,#qpHS1:$,\((E1tP7\[!=g(:9qp:d$*)7%t-/B:(x8
_2J8ZA0'k-[z
FhJ]H:=2'7<vw<<[ada#k;>xFh6\V;'x48_jXE/123#Q+h/*:$#:#+N23/_3wI]A:zBj+Y
8IiYX++W/xi 4\D9y0*7[
4#mSu2[0/f:=2'7hyW+*7h(h#O!C[d:b#M+)1-)$JWF=a:Zxu+:=_78O<5<) 0
oU*((EJ:P7%t-/B:(x#tTW[!T8Z(36
BM8.'v 6
.ends ioi_sddr_ff2
