** End of subcircuit definition.
************************************
** Library name: rnr_ioi
** Cell name: ioi_2to1_mux
** View name: schematic
************************************
.subckt ioi_2to1_mux in0 in1 out sel selb
.prot FREELIB
H]=3g\#M2)1-57X -/BjL
)KT(9.mj7z)f98Zp79;O9$oW9#m-D$23_jX($xmv_jwrBA:l
)KT39.mj7z)f-x78=#yO%xi>mzwI)Ci$,Q+h/*2\yQ+:00*p[
49+/Xd\%#K9r32H#JW6b028\TK:da487%((E1t$rD((94Uy=8
oU= 2WRSw<*I2h#3w6B028\tk:DA487%((e1T$Rd((94uY=8
Xr=$3W%8
.ends ioi_2to1_mux
