** End of subcircuit definition.
************************************
** Library name: rnr_ioi
** Cell name: ioi_ol_3to1_mux
** View name: schematic
************************************
.subckt ioi_ol_3to1_mux in0 in1 in2 out sel0 sel0b sel1 sel1b sel2 sel2b
+in3 sel3 sel3b
.prot FREELIB
H]=3g\#M+)P\,##M2)P\,.8
o![12h#;w<*I)$9<=M-xD\%#o!c7!G%<wI=A487% -/b:(X# tw[!t8z(39CiYu*q
$r$*P!Jj(9$\H#2);bahL
)CL:w[H$9<=390(3=0w0072'4/2z57($u\(I=xL8_jX($128DC z*6uY=#m2)Cil
T%T-/b:(X#Ttw[!t8z(36
e7;7c c90(3b#K9r%/$M$2:38GJO[299czyU\WF=a:Zxu+:=_78O<5<) 2,.qM26
:l6_Jx($126dc Z*6Uy=8
o!/x78X#k9R12/0%+[9.mj74#QXG;j0#m+)CZ$,\((e1Tp7\[!=G(:9QP:D$*,.8
_f]A:zXU+:]_78o<5<) 0
Zr\t;M70
.ends ioi_ol_3to1_mux
