.GLOBAL vss vdd vcco vccaux
.PARAM dfln=0.07 dflp=0.07 dflnn=0.07 dflpn=0.07
.PARAM dflnmlvt=0.1 dfln12=0.12 dflp12=0.12
.PARAM dfln15=0.12 dflp15=0.12 dflnt=0.24 dflpt=0.24
.PARAM dflntt=0.27 dflptt=0.27
.PARAM dfwn=0.2 dfwp=0.2 dfwnlvt=0.15 dfwplvt=0.15
.PARAM dfwnmlvt=0.16 dfwnmox=0.16 dfwpmox=0.16
.PARAM dfwnt=0.36 dfwpt=0.36
************************************
** Library name: XI_MacrosLib
** Cell name: xi_tgate
** View name: schematic
************************************
.subckt xi_tgate A C CB Y
.prot FREELIB
H]=3g\#M+)123#q+:=_78O<5<) 2,.q+:r$*P7*[!=g(:9qpy
3[H$2#/:5xP/9# Um02,_x :RAL87\o-=_78o<5<94 YX#!<)10
'.3W89>/$1#Yo%XI>MZWi)cI$,q=29[fy.:#+n23/7$;-/XM/_JQ
H0[I:MsQ
.ends xi_tgate
** End of subcircuit definition.
************************************
** Library name: XI_MacrosLib
** Cell name: xi_nor3
** View name: schematic
************************************
.subckt xi_nor3 A B C Y
.prot FREELIB
H]=3g\#M+)123#q+:=_78O<5<) 2,.q+:r$*P7*[!=g(:9qpy
3[)$2#/:\0u$+zk:=MD/7x(I=xLY,\w+3AZ 4\D9y02\yQP:00*p[
4 c9o2X79K<9-U/7\90bX4yU\WF)iz$#4(+j8za0'K:0P*77$K-[Z
F8=#::5xP/9#y<BxZ>mzwI)CZ$,Q=+9[FY#:#+N23/7$;-/xm/_3q
7]u280s3c9>2<YDW6%P26\TK:da467%(F]Xz'_*[!=g(:9#!o) 2\9q+y
3$J$#<2M2x/$#<2M'xPvy#TUm02,_xT:RAL67\o-]_78o<5<94 Y=#!<) 0
'.3W89=280s3)9- V7*90bX4yU*WF)iI$#4(2j8za0'K:0P*P7$K-[Z
-\#*50Xz
.ends xi_nor3
** End of subcircuit definition.
************************************
** Library name: XI_MacrosLib
** Cell name: xi_nor2
** View name: schematic
************************************
.subckt xi_nor2 A B Y
.prot FREELIB
H]=3g\#M+)123#q+:=_78O<5<) 2,.q+:r$*P7*[!=g(:9qpy
3[J$2#F:\0u$+zk:=MD/7x(I=xLY,\w+3AZ 4\D9y02\yQP:00*p[
4 39o2g79K<9-U/7\90bX4yU\WF)iz$#4(+j8za0'K:0P*77$K-/Z
F6B# 9X%V$-#yO%xPvy#TUm02,_xT:RAL67\o-]_78o<5<94 Y=#!<)10
'.3W89=280sUe9- V7*90bX4yU*WF)iI$#4(2j8za0'K:0P*P7$K-[Z
-\#*50Xz
.ends xi_nor2
** End of subcircuit definition.
************************************
** Library name: XI_MacrosLib
** Cell name: xi_inv
** View name: schematic
************************************
.subckt xi_inv A Y
.prot FREELIB
H]=3g\#M+)123#q+:=_78O<5<) 2,.q+:r$*P7*[!=g(:9qpy
3[H$2#$:\0u$+zk:=MD/7x(I=xLY,\w+3AZ 4\D9y02\yQ6394uY=8
o2[x#$1#yO%xPvy#TUm02,_xT:RAL67\o-]_78o<5<94 Y33wrBAHl
!$ 2y.'l
.ends xi_inv
** End of subcircuit definition.
************************************
** Library name: XI_MacrosLib
** Cell name: xi_nand2
** View name: schematic
************************************
.subckt xi_nand2 A B Y
.prot FREELIB
H]=3g\#M+)123#q+:=_78O<5<) 2,.q+:r$*P7*[!=g(:9qpy
3[J$#<2C/x/$+zk:\0u$#KV<9C*,##=-R[28)Q tw[!t8zwr%AH$Rz((6
ez77PW'9[(JbJW6b028\TK:da487%(F=Xz'_\[!=g(:9#!o)12\9qpy
3$H$2#$:\p $+d;:]MD/7x(I]xLY,*w+3Ai 4\D9y02\yQP:00*p[
4tc9o2X79;o9- V7*90bX4yU*WF)iI$#4(2j8za0'K:0P*77$K-/Z
-\#*50Xz
.ends xi_nand2
** End of subcircuit definition.
************************************
** Library name: XI_MacrosLib
** Cell name: xi_nand3
** View name: schematic
************************************
.subckt xi_nand3 A B C Y
.prot FREELIB
H]=3g\#M2)123.q+:]_78O<5<) 2,#q+:r[*P7\[!=g(:9qpy
3$H$2#$:\p $+d;:]MD/7x(I]xLY,*w+3Ai 4\D9y02\yQ+:00*7[
4tc9o2X79;o9- V7*90bX4yU*WF)iI$#4(2j8za0'K:0P*77$K-[Z
F6J#::kxPvy#yO%xi>mzwI)Ci$,Q=29[FY.:#+N23/7$;-[xm/_jq
7=%280s3w93280s3m9-U/7\90bX4yU\WF)iz$#4(+j8za0'K:0P*77$K-[Z
F8=#::5xZt%;J:\0u$#KV<9C*,##=-R[28)Q tw[!t8zwr%A:$Rz(36
ezs7\) Uu2[79K<9-U/7\90bX4yU\WF)iz$#4(+j8za0'K:0P*77$K-/Z
-\#*50Xz
.ends xi_nand3
** End of subcircuit definition.
************************************
** Library name: rnr_spice_sanjay
** Cell name: iob_trimux
** View name: schematic
************************************
.subckt iob_trimux cbnet<1> cbnet<0> cfg_ts eoc_user_en gts_cfg_b gts_usr_b
+inextest rcfg_ctl tsdi tsjtag tsp tstateb
.prot FREELIB
7Wuj$+ZK:b2l.+ZK:b2l.+ZKq-X'/%[29-XfH6sd'x22,#qp:r[*P!Jj(9[\H#2);bahL
TxT-[xL6_jX($126DC z*6uY=8
o!u*V$#<23i/2/0%s B#2/0%s B#gx7Sk 57(x74#QXG;j0#m+) -5<jwf=A:zXU+Y
8[\h#2);BAJ$u*(3e%+p7%T-/b:(X#Ttw[!t8z(C6
eI57\) [1)$9<=qx0I.-#Yo%XpVY#tuM02,_-WF)1-PI# 7)%v$rD(*[XM/_3Q
7] 2J9s$ *32J9*W+*7hPj#Yo%XI>MZWi)%23_Jx($Xz'_3I:0P*==#!<) 0
'.-+:=2'7xyW bP7$+D;:\P $.kv<9c*7!VWF)1-PI# 7)/2\Yq6394Uy=8
o2'%2j9S$ *32/0%s Bp7.-# 9X :*79;O9$oW9#m-[bs$,Q+h/*28)Qu:0p*==#!<) 0
'#-W+*7hs=#K9rD'/.#Y<bXp/9# uM02,_-x>9i*P!Jj:=e**7$;-! 2\9qpy
3[H$%z2'X2/$%zT:=2'7J3w6B028\tk:DAJzH#=-/b:(7\o-:xmv_.P:00*7[
4 3$XzT%3U(97UV4#Y<bXp/9# uM02,_Jx#2Xlyx++w9[fyb#!o)\h$rZ(36
ez7>#2<x='T-#K9rD'/YcW+*7h5x#Y<bXz>MZWi)1-;$#=-/B:(7$;-/XM/_JQ
7WV+$#<23IJ2[d2S bX3[d2S%xi280sp>'XfH6\v;UX48_Jxc/123#q+H/*:L
T\[!=G(:9QP:D$*p!-+(9IiYX++W/xi 4\D9y0*7[
4#)(XUT,/2<.XzT%3Ic9g'/6$K;90(36sKoWXfH6\v;UX48_Jxc/123#q+H/*:L
T\[!=G(:9QP:D$*p!-+(9IiYX++W/xi 4\D9y0*7[
4#eSXzT%3lc9[(J=u3:b2l.%Zt:38G8M'U:d[*P!-+(9izyx++w/Xz 4\d9Y0*7[
aM2)1-5xJWF]a:Zxu+:]_78O<5<) 0
'4RI:x0I$OsKqK_!.-#)0KDM/0'S9=XfH6\v;'X48_Jxc/123#q+H/*:$#:#+n23/_3Q
$d$*P!-+(9iIyx++w/XI 4\d9Y0*7[
4#wIXAX#<2_[)2[-\) h1Q$#<232V2'4/ 0Y%2,#q+H'1:$,\((E1tP7\[!=g(:9qpy
8CiYX+u(/xL6_jX($126DC z*6uY=8
o!(*2/0%s Bp7$9<=QX0 h60w7wd78+#m+)1-5Xjwf=A:zXU+:=_78o<5<) 2,.Q+h'1:l
T%T-/b:(X#Ttw[!t8z(36
e7;x#K9rD'/*/f:b2l.%Z8:38GH#9Wi=a:ZbJ+:r[*P!Jj(9[\H#2);bah$U*((E%:P[
a=2)1-PIJW2j8za0'K-[Z
Fhe3w!=2Fj0z2:B2L.%z8Q-xFh6C 69CZYX+u(/xL8_jX($128DC z*6uY=#m2)1-5Xjq
$r$*P!Jj(9$\H#2);bahL
)CJE9[(j=54:X0D$)Cs!=-2,#Q+h'1:$,\((e1Tp7\[!=G(:9QP:D$*p!-+(9IiYX++W/z
$6DC z*6uY=8
o!(/2A%zsrB6280SP)'xFh6C 69CZYX+u(/xL8_jX($128DC z*6uY=#m2)1-5Xjq
$r$*P!Jj(9$\H#2);bahL
)C,)90(369k<90(369k<c32'4/#+\x48_jXC/123#Q+h/*:$#:#+N23/_3wI]A:zBj+Y
8IiYX++W/xi 4\D9y0*7[
4#3UXUT,/2<]XUT,/2<]D/$)cS!=-2,#q+H'1:$,\((E1tP7\[!=g(:9qp:d$*P!-+(6
:l6_Jx($126dc Z*6Uy=8
o!(%2A%zs%JGgx7\) [vy$)Cs!=-2,#Q+h'1:$,\((e1Tp7\[!=G(:9QP:D$*p!-+(6
:l6_Jx($126dc Z*6Uy=8
o!:h2j9l2'NxZt%34>9E7.4\y:D[*7!j4(9IZYX++W/xZ 4\D9y0*77xT-uxL6_jX($10
o.:#+n23/_3Q
7WF)$OsKq003.-#d bDM/8#O!C8z<7X -/BjPx#=+)1-PIJW+j8za0'K-[X46_Jxc/10
o,*((E1tP7*[!=g(:9qpy
38V;7\) [/J$9<=QX0<.-# 9X V574#Q==ZvB#m+)1-5Xjwf=A:zXU+:=_78o<5<) 0
oU*((E%:P7%t-/B:(x#tTW[!T8Z(36
e7;<# 9x t97\) [HS$9<=q\0U$)cS+5[ 57X -/BjPx#=+)1-PIJW+j8za0'K-[Z
$,.Q+h'1:$,*((e1Tp7*[!=G(:9QPY
38))7z)fc7uf60wzX0g\9'w+*7H($#o!c[;8y-wI=A:zBj+:R[*p!jJ(9[\h#2);BAHl
TxT-/bJpX#=2)1-pijw2J8ZA0'k-[z
Fh>Uw+*7H9B# 9X y07\) [*)$)Cs+5[ 57x -/bJpX#=+)1-pijw+J8ZA0'k-[z
$,.Q+h'1:$,*((e1Tp7*[!=G(:9QPY
38T(7z)fc7uf60w+*7H)B#2<mxZt%3L>9E7.#[ Oux46_jXC/123.Q+h/*:l
T*[!=G(:9QP:D[*p!-+(9IZYX++W/xZ 4\D9y0*7[
+!+]6dJ[
.ends iob_trimux
** End of subcircuit definition.
************************************
** Library name: XI_MacrosLib
** Cell name: xi_tgate_lvt
** View name: schematic
************************************
.subckt xi_tgate_lvt A C CB Y
.prot FREELIB
H]=3g\#M+)123#q+:=_78O<5<) 2,.q+:r$*P7*[!=g(:9qpy
3[H$2#/:5xP/9# Um0L<%#m-D[23_% :=E*8DC z*6u$Rd((94uYX8
o2[x#$s0w'9- v7*90Bx4Yu*wf)Ii$#4(2J8ZA0'k:0p*p7$k-/z
-\#*50Xz
.ends xi_tgate_lvt
** End of subcircuit definition.
************************************
** Library name: rnr_ref
** Cell name: ref_vinit0
** View name: schematic
************************************
.subckt ref_vinit0 node
.prot FREELIB
H0[I:MsQ
.ends ref_vinit0
** End of subcircuit definition.
************************************
** Library name: madan_work
** Cell name: ioi_sddr_ff1_new
** View name: schematic
************************************
.subckt ioi_sddr_ff1_new ce_b clk_b d grdbk gsr qmbb_out qs1_fb rdq rdq_b
+rdq_out rev sr srq srselq_b synchq
.prot FREELIB
%[J2V1s$:\0U$Sq3H:_0
[x#;29-U/7g(cEVS [
gU:>m2<9ZW%)V:P!J$y
k/2[,Ww6B02[_-XM:_0
[=#%u-Xp/9#/-:B:0d8
/M9[(j=v3:\0u$sQ3(/b:G[
4#mI 2V7\) '%Y$#<2c'V2V1s$:38GJO[29CipJ7X -'Xl8_Jx($128dc Z*6Uy=#M2) 0
o,*((E1tP7*[!=g(:9qpy
38)0B#;'X=2[,Ws[9>LM7dT:38gjo[29cIPj7x -[xL8_jX($128DC z*6uY=#m2) 0
o,*((E1tP7*[!=g(:9qpy
38)0J#;296( 69#+w7:l
)C3p:x G%[w;*_g<4\# /z
FhJ;L:y2P$9'k9Rngx7z5<*IN$#<23uh2'4/2z57($u\((e%:p7% -/b:(X8
_+J8ZA0'k-[x46_jXC/123.Q+h/*:$.:#+N23/_3q
7Wu);7\) [/)$S%\:Ki].-#;29e7.%2$ *X48_Jxc/123#q+H/*:$#:#+n23/_3Q
$d$*P!-+(9iIyx++w/XI 4\d9Y0*7[
4#m( 2g9P %CP;J1/f:b6n$9'%q-Xn>-#O!C7!g%<Wi=a:ZbJ+:r[*P!Jj(6
:z 4\d9Y0*77Xt-/BjPx#=2)1-PIJW2j8za0'K-[Z
FhJvP:>M2/8_s[903_7\) [/)$)Cs N='t7x -/bJpX#=+)1-pijw+J8ZA0'k-[z
$,.Q+h'1:$,*((e1Tp7*[!=G(:9QPY
38))J# 9X )*7\) 'UH$oz5:=2'7<vw7wd'A1S):D[*p!-+(9IZYX++W/xZ 4\D9y0*7[
aM2)1-5xJWF]a:Zxu+:]_78O<5<) 0
'4;I>9=Ue#gSo57;$9'%:b6n.-#;29e7.%2$ *X48_Jx>/123#q+H/*:$#:#+n23/_3Q
$d$*P!V+(9iIyx++w/XI 4\d9Y0*7[
4#m:V280sp)UXAT60W+*7jPI#;'x=2'4/2Z57($U\((EH:P7% -/B:(x# TW[!T8Z(36
:46_Jxe/123.q+H/*:$.:#+n23/_3Q
7WuS97\) [Jt$#<2c/1280sp#:XzT%3hm9e7.%2$ *X48_Jxe/123#q+H/*:L
T\[!=G(:9QP:D$*p!Y+(9IiYX++W/xi 4\D9y0*7[
4#m(J2:Y_S0072a9'W+*7js=# 9x +)74#qxg;J0#M+)1-5xJWF=a:Zxu+:=_78O<5<) 0
oU*((E%:P7%t-/B:(x#tTW[!T8Z(36
e7sh]W<YXU:9<=4903/0%%q-XzT%33e9e7.%2$ *X48_Jxc/123#q+H/*:$#:#+n23/_3Q
$d$*P!-+(9iIyx++w/XI 4\d9Y0*7[
4#m(u280sU([X!:Y0\:=2'7>JW;%N2'4/2Z57($U\((E%:P7% -/B:(x# TW[!T8Z(36
:46_Jxc/123.q+H/*:$.:#+n23/_3Q
7WuE)7\) [Jt$O';[4XzT%3l(96 _60W7WD'a1s):d[*P!-+(9izyx++w/Xz 4\d9Y0*7[
aM2)1-5xJWF]a:Zxu+:]_78O<5<) 0
'\*h:%='g7\) [F+$#<2c'*2<YDW2O.U$Uq+H:Xlyx++w94 yx#!<)10
'\\3:%='g7\) [F)$#<2c'*2<9ZW+O.U$Uq+H:Xlyx++w94 yx#!<)10
'4;h390#8SH%:=2'7EVW+*7h;<#O!C[;8Y-Wi=a:ZbJ+:r[*P!Jj(9[\H#2);bahL
TxT-/bJpX#=2)1-pijw2J8ZA0'k-[z
FhJ5u:B62:09wzB6280Su(/xFh6\V;ux48_jXC/123#Q+h/*:$#:#+N23/_3wI]A:z>j+Y
8IiYX++W/xi 4\D9y0*7[
4##9[(J=5j:=2'5x3W7WD78+#M+)1-sxJWF=a:Zxu+:=_78O<5<) 2,.q+H21:L
T%T-/b:(X#Ttw[!t8z(36
e7sE-W'boz[6D$ 5X;/2\/q%='g60W7WD78+#M+)1-s<JWF=a:Zxu+:=_78O<5<) 0
oU*((E*:P7%t-/B:(x#tTW[!T8Z(36
e7s$;WZYP/m7\) [H:$)cS!=-2,#q+H:1:$,\((E1tP7\[!=g(:9qp:d$*P!y+(6
:l6_Jx($126dc Z*6Uy=8
o!uj+$s<s[9[(jBjJ:38gh#9wI=A:zBj+:R[*p!jJ(9[\h#2);BAH$u*((e%:p[
a=2)1-PIJW2j8za0'K-[Z
FhJ5H:=2'5BUw+*7Jpe#o!c8Z<7x -/bJpX#=+)1-pijw+J8ZA0'k-[x46_jX>/10
o,*((E1tP7*[!=g(:9qpy
38)9i# 9X%:;7[k8=>gv1S$:38gh#9wI=A:zJ-+:R[*p!jJ(9[\h#2);BAH$u*((eUJp[
a=2)1-PIJW2j8za0'K-[Z
FhJ5L:ypN.-#5O>dD\%#o!c8Z<7x -/bJpX#=+)1-pijw+J8ZA0'k-[x46_jXC/10
o,*((E1tP7*[!=g(:9qpy
38)9e#/f4d/$s%\:38gh#9wI=A:zHr+:R[*p!jJ(9[\h#2);BAH$u*(3e%:p7%T-/b:(X8
_2J8ZA0'k-[z
FhJUu:%$2_\0w7wd78+#m+)1-*Xjwf=A:zXU+:=_78o<5<) 2,.Qu:R$*p!jJ(6
:I 4\d9Y0*7[
4#m$u2/8_W<YNGX74#qW[p$U\((E%:P7% -/B:(x# TW[!T8Z(39cIyx+h(/Xl6_Jx($10
o.:#+n23/_3Q
7Wut)7_9[9NO$)cS!=-2,#q+H:J:$,\((E1tP7\[!=g(:9qp:d$*P!Vh(9iIyx++w/Z
$6DC z*6uY=8
o!u*y$#<2C/1280SP#:xFh6C 69CZYX+i)/xL8_jX($128DC z*6uY=#m2)1-)$jq
$r$*P!Jj(9$\H#2);bahL
)C3W$xZt%-u)9[(jB-4:38gh#9wI=A:zH5+:R[*p!jJ(9[\h#2);BAH$u*((e/yp[
a=2)1-PIJW2j8za0'K-[Z
FhJUL:=2'7<vw+*7J5i#o!c8Z<7x -/by)X#=+)1-pijw+J8ZA0'k-[x46_jX>/10
o,*((E1tP7*[!=g(:9qpy
38)(e#%<-xZt%3HW9E7.4\y:D[*p!5+(9IZYX++W/xZ 4\D9y0*77xT-[bJpX8
_f]A:zXU+:]_78o<5<) 0
'4;l(9gU:7\) 'uh$)cS!=-2,#q+H'1:$,\((E1tP7\[!=g(:9qp:d$*P!-+(6
:l6_Jx($126dc Z*6Uy=8
o!uhH$#<23(v280SP#uxFh6C 69CZYX+u(/xL8_jX($128DC z*6uY=#m2)1-5Xjq
$r$*P!Jj(9$\H#2);bahL
)C3#/xu:9<=4c32/8z)f>xFh6C 69CZYX+u(/xL8_jX($128DC z*6uY=#m2)1-5Xjq
$r$*P!Jj(9$\H#2);bahL
)C3EsxN>-#%U-3gWRSw7wd78+#m+) -*Xjwf=A:zXU+:=_78o<5<) 2,.Qi:R$*p!jJ(6
:I 4\d9Y0*7[
4#mS*2_93ST-Xn/-#O!C8z<7X -/B+Px#=+)1-PIJW+j8za0'K-[X46_3xc/10
o,*((E1tP7*[!=g(:9qpy
38)*J#/9c3280SP#:xZt%-u)9E7.#t5C9CZYX+i)/xL8_jX($128DC z*6uY=8
_I]A:z$j+:R$*p!jJ(9$\h#2);BAHl
)C3#sxZt%-+(90#8sh%:B6N$)Cs+m6J$u\((eh:p7% -/b:(X# tw[!t8z(39CiYX+u(/z
$3.Q+h/*:$.:#+N23/_3q
H0[I:MsQ
.ends ioi_sddr_ff1_new
** End of subcircuit definition.
************************************
** Library name: rnr_ref
** Cell name: ref_mc2d1a_vdd
** View name: schematic
************************************
.subckt ref_mc2d1a_vdd a d d_b q q_b
.prot FREELIB
7O$nX.$W4C32_79;o9- V7*90bmd'7X((E j$,q+H[V2\Yq+:00*P7X57%a:Zj#M;30*P!u4y
3Mi_.$w49ngx79;O9- v7*90BMD'7x((e J$,Q+h[v2\yQ+:00*p7x57%A:zB34:D6F/_jXp(v0
'\\$49N2g7DW6b028\TKuMe2,_JxcIXlyx+pc9cz,_Jxm'V2\Yqp:00*P[
49+5N/$A/f:5X .-#Y<bXz>MZ903X4yx+UP9i*P!3U:d[4yx+3cIXMV_3WRba:L
)K 4]p2_7_s[9-u/79k<9[oW9KV79C*p!-4:RA:z=-wI=C*p!-J:0p*77$k-/z
F>#_F2%xN.-#%:\0u$+zk:=MD/\to:DA:zBrwf)1-7B#m+DA:zBUwr%AH$Rz((6
BM8.'v 6
.ends ref_mc2d1a_vdd
** End of subcircuit definition.
************************************
** Library name: rnr_ioi
** Cell name: ioi_xor2
** View name: schematic
************************************
.subckt ioi_xor2 A B Y
.prot FREELIB
H]=3g\#M2:a:Z>RWF]/*Vd%t:d[Syb+l:r[SyY:=+6
eI77\) 212g79;o9- V7*90bX4yU*I:ral6h#!o)12\9q+y
3$J$#<2):x/$+d;:\p $.KV<9C*,.vwf)Ii)7$;-/xm/_jq
7]/2e7\) 21280sh>9- V7*90bX4yU*I:ral6h#!o)12\9q+y
3$)$2#$:-xPvy#TUm02,_xT>9I*3.vwr%A:$Rz((6
ez)7PW'9[(J$VW6b028\TK:da48h#=-r[S$rD((94Uyx8
o+ux#$#<2)/x/$+zk:=MD/7x(I=/23_% >94 YX#!<)10
'#3W+*7YP7[W6b02<9ZW+O.U$UqM+:Xly,\I:0P*P7$K-/Z
F8B# 9Xjs$-#y<BxP/9# Um02,_x >9I*3#vwr%A:$Rz((6
BM8.'v 6
.ends ioi_xor2
** End of subcircuit definition.
************************************
** Library name: rnr_ioi
** Cell name: ioi_2to1_mux
** View name: schematic
************************************
.subckt ioi_2to1_mux in0 in1 out sel selb
.prot FREELIB
H]=3g\#M2)1-57X -/BjL
)KT(9.mj7z)f98Zp79;O9$oW9#m-D$23_jX($xmv_jwrBA:l
)KT39.mj7z)f-x78=#yO%xi>mzwI)Ci$,Q+h/*2\yQ+:00*p[
49+/Xd\%#K9r32H#JW6b028\TK:da487%((E1t$rD((94Uy=8
oU= 2WRSw<*I2h#3w6B028\tk:DA487%((e1T$Rd((94uY=8
Xr=$3W%8
.ends ioi_2to1_mux
** End of subcircuit definition.
************************************
** Library name: madan_work
** Cell name: ioi_optinv2_clkpm
** View name: schematic
************************************
.subckt ioi_optinv2_clkpm a<0> clk_m clk_optinv_m1 clk_optinv_m2
+clk_optinv_p1 clk_optinv_p2 clk_p clk_serdes_p1 d<0> d<1> d_b<0>
+d_b<1> ddr_se a<3> a<2> a<1> d<31> d<30> d<29> d<28> d<27> d<26>
+d<25> d<24> d<23> d<22> d<21> d<20> d<19> d<18> d<17> d<16> d<15>
+d<14> d<13> d<12> d<11> d<10> d<9> d<8> d<7> d<6> d<5> d<4> d<3>
+d<2> d_b<31> d_b<30> d_b<29> d_b<28> d_b<27> d_b<26> d_b<25>
+d_b<24> d_b<23> d_b<22> d_b<21> d_b<20> d_b<19> d_b<18> d_b<17>
+d_b<16> d_b<15> d_b<14> d_b<13> d_b<12> d_b<11> d_b<10> d_b<9>
+d_b<8> d_b<7> d_b<6> d_b<5> d_b<4> d_b<3> d_b<2>
.prot FREELIB
%[/280sp(/Xp/9#/-UB+ [
g+:=2'7xRW6b02[_;xPjZ
a77\) s12<9zw%)U-0D8
/C9[(j>rw6B02[_;XpJz
Fhs%\Cw[P$1M+v9pcSX1wOc3cSX1w+*7H7X# 9XjV$8<[Qo>Jv=[s6%p0
'4g=.[8z<7[1(+X #j3E:%D/#j3E:=2'(h# 9x*)$8<[qO>jV=[S6%P0
'4u3m9>lm=c 6C32[,wU!=-GX7\) $*2HMcS7M6j$U*I-/BS$,*I-/B:(7X >)1-)[
a=+:a:ZxuQ
7W>]>)-f:Ki].\#/F4DI$#<2e/XA3G-#+\D/$S%\cW[p$4T#q'7d76k!79cIy=+,y
8CZY=+4Y
38aM\4u'9>LM6Kw%R,g67\) sv2[,Wu!=-2[,Wu!=-gx7CV!c%'W=/9r3x46_3X#6
:48_3xP6
e7Vrk98O4f$S%\qOXA3G/t:=2';x#/F4 78+/f:Ki]74\Y:W.7.bsv3CmM'7Xt-[BEL
Tx -[b+l
)C97kI]77G=.cM2[,Ws29[(jerw%R,Hh#9w%R,Hh#9s[98Dh6-20[do\)#m2) -;[
aM+) -0[
4#%4mf7-#/F4DO$S%\q]XzT%3+(9>lm=c 6C32[,wp!=-2HMcScx.h.\$O:d$*7!]Q
$d[*7!RQ
7W>]>)3$:Ki].\#/F4DI$#<23/V2[,wp!=-2[,wp!=-GX7cv!C%'w=/9R3X46_3x#6
:48_3xP6
e7[Gc 6'=280slP9>lm6Tt W[p..-W7WD78+#M+) -PxRWF=a:Zxu+:=_78O<5<)%0
oU*(3EF+P7%t-/B:(x#tTW[!T8Z(c6
e7[Gc 6'3280sl(9>lm6Tt W[p.\-W7WD78+#M+) -PxRWF=a:Zxu+:=_78O<5<)%0
oU*(3EF+P7%t-/B:(x#tTW[!T8Z(c6
e7[Gc 6[=280sp(IXA3G/v2x8z<6*p:38GH#9Wi=ahZxJ4:r[*P!Jj(9[\H#2);bajL
TxT-[be0X#=2)1-pijw2J8ZA0'k-'z
FhsW#+\ /$#<23/12[,Ws0]778+/939E7.4\y:D[*7!j+p9IZYX++W/xZ 4\D9y0*5[
aM2) -;<JWF]a:Zxu+:]_78O<5<)%0
'4uU>9[(JI;W%r,hH#9W7WD78+#M+)1-)xJWF=a:Zxu+:=_78O<5<) 2,.q+H:1:L
T%T-/b:(X#Ttw[!t8z(36
e7(bJW%r,jH#9W%r,jH#9S[9e7.4\Y:d[*P!V+(9izyx++w/Xz 4\d9Y0*77Xt-/BSPx8
_f]A:zXU+:]_78o<5<) 0
'4uUm9[(JIuWo%6G/0#O!C8z<7X -/BSPx#=+)1-PIJW+j8za0'K-[X46_Jx>/10
o,*((E1tP7*[!=g(:9qpy
38T5<# 9XjV$s%\Cw[P$)Cs!=-2,#Q+h:1:$,\((e1Tp7\[!=G(:9QP:D$*p!v+(6
:l6_Jx($126dc Z*6Uy=8
o!ufe$#<2#ixa3g/k9yp(/6*P:38gh#9wI=AHz>j+:R[*p!jJ(9[\h#2);BAJl
TxT-ubypX#=2)1-pijw2J8ZA0'k-'z
Fhi3L:kI]74\y:kI]74\yQ-xFh6C 69CZYX+i(/xL8_jX($128DC z*6uY=#m2)1-)Xjq
$r$*P!Jj(9$\H#2);bahL
)C;roM#h#9w+*7ep7\) [ J$)Cs!=-2,#QPhs1:$,\((e1Tp7\[!=G(:9Qu:D$*S!5+(6
:l6_Jx($126dc Z*6Uyb8
Xr=$3W%8
.ends ioi_optinv2_clkpm
** End of subcircuit definition.
************************************
** Library name: XI_MacrosLib
** Cell name: xi_nand2x
** View name: schematic
************************************
.subckt xi_nand2x A B Y
.prot FREELIB
H]=3g\#M+'a:$,\U-/X48b/[!=g(:9qp:d[hyx#=+[a:$U\pqj8za0'K-[X46=q+:r$hyx8
_I] g 4\D9y0*77xTC)123.-((9Ci56:#+N23/_3q
7=%280sU(932<9ZW6b028\TK:da48b#=-r[j$#4(i=%G 4\d9Y02\Yqp:00*P[
4 39o2g7\) '12<9ZW+O.U$UqM+[Xly,\p:=e*,#3STW[!T8ZWR%a:$rZ(36
eI77PW'9- V79;o9$Ow9#M-d$h$,q=2[Xz'_Xt3C_78O<5<94 y=#!<)10
'.-W8932<YDW6%P26\TK:da46b#=-r$j$#4(i]%G 4\d9Y02\Yqp:00*P[
+!+]6dJ[
.ends xi_nand2x
** End of subcircuit definition.
************************************
** Library name: madan_work
** Cell name: ioi_ddrmux
** View name: schematic
************************************
.subckt ioi_ddrmux out latch_en clk1_b clk2_b ghigh_b in1 in2 in3 por_b s1
+s2 sr1 in4 clk3_b sr1_fdbk s3 s4
.prot FREELIB
%/XzT%3,(9-U/7g(PE%\L
s3u:=2'SX;w6B02[_rJ(e1;l
svw<*IJ.-#y<BxaYij+h/=0
[=]W+*7j0<#Y<bXAy=+IT6
>j97\) 'F+$+ZK:Ka+9x++(5Z
a97z)fuxP/9#/-[be(D8
/p90(3J/F:\0u$sQJ(/b:G[
gpm9[(Jb]j:\0U$Sq4(/B:g[
g,:Ki]sY%::\0U$Sq,e/B:P18
/E9>LMBd=89-u/7G(#:1-pX[q
%$XA3G3;F<Xp/9#/-(%:ZxJ$y
k%2/0%PQ-xP/9#/-$1:zX[q
%[XUT,3W6b02[_3x#'_0
[=5W+*7j0=#Y<bXAyhR+H/1;L
s;w<*IJ$+zk:kAHzeU[Y
k%+$#<2C'v2<9zw%)v-pD8
/3:xZt%-4M9-u/7G(3e/\l
s3L:=2'5i;w6B02[_Uu#e1:p18
/C$xZt%-,M9-u/7G(p[U-pX[q
%'u280s3($Xp/9#/-[BS [
gUc9[(Jbup:\0U$Sq4c/B:g[
gU>9[(JbVj:\0U$SqlP/B:P18
/C[xZt%-H#9-u/7G(ps1-p18
/3$xZt%-,39-u/7G(Wu1-pX[q
%[1280sU#(Xp/9#/-$V:Zx[Q
%[ 280s3([Xp/9#/-I1:ZxJ$y
k%:$#<2C$v2<9zw%)/+p!j+'6
>j*7\) 'V:$+ZK:Kav(x++(5Z
Fh=Uu:w[H$9<=390(3=/F:=2'7ejw7wd'A1S)QR-'$u\(3e%:p7% -/b:(X8
_+J8ZA0'k-[x46_3Xp/123.Q+h/*:$.:#+N23/_3q
7W t07c >90S$9VS[9[(J=]+:38GJO[29CipJ7X -[BjPx#=+)1-PIJW+j8za0'K-[Z
$,.QPhi1:$,*((e1Tp7*[!=G(:9QPY
38H(J##+'xut,-w<*IJ.-# 9X ep74#QXG;j0/=6Xx48_3XC/123#Q+h/*:l
T\[!=G(:9QP:D$*7!r+(9IiYX++W/xi 4\D9y0*7[
4#3$/2H#;W<*i)$9<=mC3280sp#/XfH6sd'x2G3+sWi=ahZbJ+:r[*P!Jj(6
:z 4\d9Y0*77Xt-[B+Px#=2)1-PIJW2j8za0'K-[Z
F8sjw+*7J5<# 9X ep79k<9-u/7\90BIPj7x(Ce/23_jX($xmv_jwrBA:l
)\P:=2'5=Uw6%p2<9zw6B028\tk:DA:zB#=-/bJ$Rd((94uYX8
o+/xZt%3,(9[(jB-4:=2'5=Uw6B028\tk:DA:zB#=-/bH*7$;-/xm/_jq
7=%280sUcIXzT%-Um9-U/79K<9[Ow9#M-/Bj$,q+H/H2\Yq+:00*P[
4t(9[(JbV+:\0U$+D;:\P $.kv<9c*P!-WF)1-57$;-/XM/_JQ
7]/280sUcIXzT%3,(9[(Jb;j:\P $.kv<9c*5!5WF)1-PI# 7)%2\Yq6394Uy=8
o2uxZt%-3W9[(jB-3:\p $+d;:]MD/7x(CeU23_jX($xZ'_vwr%A577$k-[z
F6=# 9X ep7\) '%+$#<2C:12<ydw2o.u$uQ+h'xLYX+Pp94 YX#!<)10
'433w9[(Jj-h:=2'5I;W+*7j)h#O!C[d:b#M+)1-5xJWF=a:Zxu+:=_78O<5<) 0
oU*((E/:P7%t-/B:(x#tTW[!T8Z(36
e7(h# 9x%v(7\) 'FE$#<2c:*2'4/ 0Y%2,#q+H'1:$,\((E1tP7\[!=g(:9qpy
8CiYX+i(/xL6_jX($126DC z*6uY=8
o!$U280S3CuxZt%-,39[(jBr+:38g8m'u:D[*p!-+(9IZYX++W/xZ 4\D9y0*7[
aM2)1-)xJWF]a:Zxu+:]_78O<5<) 0
'4-+c9[(JjJj:=2'5<3W7WD78+#M+)1-5xJWF=a:Zxu+:=_78O<5<) 2,.q+H'1:L
T%T-/b:(X#Ttw[!t8z(36
e75IRW%r,h.-# 9x%+s74#qW[p$U\((E/:P7% -/B:(x# TW[!T8Z(39cIyx+l(/Z
$3.Q+h/*:$.:#+N23/_3q
7W +*7g=.UD/$#<2cIV2'4/#+\X48_Jx>/123#q+H/*:$#:#+n23/_3Wi]a:Z>J+y
8IiYX++W/xi 4\D9y0*7[
4#32J2/0%p:b2l760W7WD78+#M+)1-)xJWF=a:Zxu+:=_78O<5<) 2,.q+H21:L
T%T-/b:(X#Ttw[!t8z(36
e7VY'vRxD78+# 9x%j07T! 9e7.4\Y:d[*7!V4(9izyx++w/Xz 4\d9Y0*)7Xt-'BS)x8
_f]A:zXU+:]_78o<5<)v0
'43h#90(3j#K9ruGX74#qW[p$U\((E/:P7% -/B:(x# TW[!T8Z(39cIyx+h(/Z
$3.Q+h/*:$.:#+N23/_3q
7W Y*7Z)F'XUT,-S[9e7.4\Y:d[*P!V+(9izyx++w/Xz 4\d9Y0*77Xt-/BYPx8
_f]A:zXU+:]_78o<5<) 0
'4-p)90S$9VS[9e7.4\Y:d[*P!V+(9izyx++w/Xz 4\d9Y0*77Xt-/BYPx#=2)1-PIJQ
$]_78O<5<) 0
'43Uw9-U/7\) 'Jt$)cS!=-2,#q+H'1:$,\((E vP7\[!=g(:9qp:d$*P!-+(9iIyx+pe/Z
$6DC z*6uY=8
o!' H$#<2C$v280Su)(xFh6C 69CZYX+u(/xL8_jX3s128DC z*6uY=#m2)1-5Xjq
$r$*P!3l(9$\H#2);bahL
)Cu3uxZt%-H#9[(jBUP:38gh#9wI=A:zBj+:R[*p!3L(9[\h#2);BAH$u*((e%:p[
a=2)1-7>JW2j8za0'K-[Z
FhB3i:=2'5i3w+*7J(J#o!c8Z<7x -/bJpX#=+)1-7>jw+J8ZA0'k-[x46_jXC/10
o,*((E vP7*[!=g(:9qpy
38J7<# 9X%+07\) '*+$)Cs!=-2,#Q+h'1:$,\((e1Tp7\[!=G(:9QP:D$*p!-+(6
:l6_Jx($126dc Z*6Uy=8
o![U)$#<2C2*280SuW$xFh6C 69CZYX+u(/xL8_jX3s128DC z*6uY=#m2)1-5Xjq
$r$*P!3l(9$\H#2);bahL
)CL#9I;jshs9=xZt%-J#9E7.4\y:D[*p!-+(9IZYX++W/xZ 4\D9y0*77xT-/bJpX8
_f]A:zXU+:]_78o<5<) 0
'43,e90377Z53C_ XG#O!C8z<7X -/BjPx#=+)1-PIJW+j8za0'K-[X46_Jxc/10
o,*((E1tP7*[!=g(:9qpy
38e;79k<9[(jBY3:38gh#9wI=A:zBj+:R[*p!3L(9[\h#2);BAH$u*((e%:p7%T-/bH*X8
_2J8ZA0'k-[z
Fh=]i:].3.-# 9X%JS74#Qw[P$u\((e%:p7% -/b:(X# tw[!t8z(39CiYX+u(/z
$3.Q+h/*:$.:#+N23/_3q
7W*t$93W+*7j*I#O!C8z<7X -/BjPx#=+)1-PIJW+j8za0'K-[X46_Jxc/123.q+H/*:L
T*[!=G(:9QPY
38e77\) uUJ$9'sf[xFh6C 69CZYX+u(/xL8_jX($128DC z*6uY=#m2)1-5Xjq
$r$*P!Jj(9$\H#2);bahL
)Cu(uxZt%-,M9[(jB]P:38gh#9wI=A:zBj+:R[*p!3L(9[\h#2);BAH$u*((e%:p[
a=2)1-7>JW2j8za0'K-[Z
FhBjJ:=2'5erw+*7J;J#o!c8Z<7x -/bJpX#=+)1-7>jw+J8ZA0'k-[x46_jXC/10
o,*((E vP7*[!=g(:9qpy
38Jpe# 9X%+77\) 'f+$)Cs!=-2,#Q+h'1:$,\((e Vp7\[!=G(:9QP:D$*p!-+(6
:l6_Jx3S126dc Z*6Uy=8
o![ve$#<2CiU280Su#$xFh6C 69CZYX+u(/xL8_jX($128DC z*6uY=#m2)1-5Xjq
$r$*P!Jj(9$\H#2);bahL
)Cu(2xZt%;+39[(jB],:38gh#9wI=A:zBj+:R[*p!3L(9[\h#2);BAH$u*((e%:p[
a=2)1-7>JW2j8za0'K-[Z
FhBj4:=2'SX;w+*7)p=#o!c8Z<7x -/bJpX#=+)1-7>jw+J8ZA0'k-[x46_jXC/10
o,*((E vP7*[!=g(:9qpy
38JpH# 9X%e(7\) u1)$)Cs!=-2,#Q+h'1:$,\((e Vp7\[!=G(:9QP:D$*p!-+(6
:l6_Jx3S126dc Z*6Uy=8
o![ J$#<2M[ 280S3(ixFh6C 69CZYX+u(/xL8_jX3s128DC z*6uY=#m2)1-5Xjq
$r$*P!3l(9$\H#2);bahL
)CPp$xa3g-s[9[(jJjJ:38gh#9wI=A:zHj+:R[*p!jJ(9[\h#2);BAH$u*((eh:p[
a=2)1-PIJW2j8za0'K-[Z
Fh=j,:=2'5>;w+*7)pe#o!c8Z<7x -/bJpX#=+)1-7>jw+J8ZA0'k-[x46_jXC/10
o,*((E vP7*[!=g(:9qpy
38H7=#y<BxZt%;P39E7.4\y:D[*p!-+(9IZYX+PE/xZ 4\D9y0*77xT-/bJpX#=2)1-7>jq
$]_78O<5<) 0
'434)9>lmjD=89- V7Z)FUXfH6\$+%%f$U\U-/BtPx#=+'a:Zxu+:d[j.dc Z*6Uy=8
_I= *p!U+(9IZ7_jX($12,#3stw[!t8z(39Ci7_jX)/123.3((e1Tp[
aM2[D\H#2);bah$U*U-/BYPx#=2'a:Zxu+:d$j.dc Z*6Uy=8
o!s%2[,WPORO2/8/=390(3=#o!c[;8y-o:D[JYX+J(/xL8BQ+h/*:$u\uQJ8ZA0'k-[z
$,#3((e*:p7% 3)1-pijwI= g 4\D9y0*77xT3)1-9Xjwf] *p!jJ(6
:46=/[!=g(:9qp:d$jyx+h(/Xl6bq+H/*:$U*Uqj8za0'K-[Z
Fh>;w%R,Jv,pw6%p2/0%u:38g81\;C3x48BQ+h$1:$,\u-/b:(X#m+'d\h#2);BAHl
Tx 3)1-(Xjwf= *p!jJ(9CZ76:#+N23/_3wI] *p!5+(9Ii7_jX($10
oU*pqj8za0'K-[X46bq+H21:$,*U-/B:(x#M2'D\H#2);bahL
)Cu3$xu57z53c_ xg# 9XUJS74#Q==ZvB#m+)1-*Xjwf=A:zXU+:=_78o<5<) 0
oU*((EJ:P7%t-/B:(x#tTW[!T8Z(36
e77E]W<UXU:=/[o-,280s3c2XfH6\$+%%2,#q+HS1:$,\((E1tP7\[!=g(:9qpy
8CiYX+H(/xL6_jX($126DC z*6uY=8
o![Uy$#<2Civ280Su>:xa3g;;f<xFh6\$+%%2,#Q+hs1:$,\((e1Tp7\[!=G(:9QPY
8CiYX+H(/xL6_jX($126DC z*6uY=8
o!sh280SuW(xu:=/[O-,280S3M'xFh6\$+%%2,#Q+h:1:$,\((e1Tp7\[!=G(:9QPY
8CiYX+i(/xL6_jX($126DC z*6uY=8
o!' J$#<2M/*280Sup/xa3g-;f<xFh6\$+%%2,#Q+hs1:$,\((e1Tp7\[!=G(:9QPY
8CiYX+H(/xL6_jX($126DC z*6uY=8
o!'1V$#<2CiU280Su>$xa3g3;f<xFh6\$+%%2,#Q+hij:$,\((e1Tp7\[!=G(:9QPY
8CiYX+H(/xL6_jX($126DC z*6uY=8
Xr=$3W%8
.ends ioi_ddrmux
** End of subcircuit definition.
************************************
** Library name: rnr_ioi
** Cell name: ioi_ol_3to1_mux
** View name: schematic
************************************
.subckt ioi_ol_3to1_mux in0 in1 in2 out sel0 sel0b sel1 sel1b sel2 sel2b
+in3 sel3 sel3b
.prot FREELIB
H]=3g\#M+)P\,##M2)P\,.8
o![12h#;w<*I)$9<=M-xD\%#o!c7!G%<wI=A487% -/b:(X# tw[!t8z(39CiYu*q
$r$*P!Jj(9$\H#2);bahL
)CL:w[H$9<=390(3=0w0072'4/2z57($u\(I=xL8_jX($128DC z*6uY=#m2)Cil
T%T-/b:(X#Ttw[!t8z(36
e7;7c c90(3b#K9r%/$M$2:38GJO[299czyU\WF=a:Zxu+:=_78O<5<) 2,.qM26
:l6_Jx($126dc Z*6Uy=8
o!/x78X#k9R12/0%+[9.mj74#QXG;j0#m+)CZ$,\((e1Tp7\[!=G(:9QP:D$*,.8
_f]A:zXU+:]_78o<5<) 0
Zr\t;M70
.ends ioi_ol_3to1_mux
** End of subcircuit definition.
************************************
** Library name: rnr_ref
** Cell name: ref_optinv
** View name: schematic
************************************
.subckt ref_optinv in inv inv_b out
.prot FREELIB
H]=3g\#M+Uah$U\U-[X48=qp:d$jy=#M2[ah$U*3-[Z
F8J#VrXx78+/F:w[2<9zw+o.u$uQm+uxLYX++W94 Y=#!<)10
'#-Wo=X78+#Y<bXp/9# uM02,_X c9i*P!Jj:0P*77$K-/Z
F8=#VrXx787d :\0u$#KV<9C*,#3wf)1-pi#!O) 2\9Q+Y
3$J$R*w!=-gx79;O9- v7*90Bx4Yu*u:RA:zXUwr%AH$Rz((6
eI77T! 98z$r*W6%P26\TK:da46=#=-/B:(7$;-/XM/_3Q
7]u2wrsW!=-2H##Yo%XI>MZWi)cIs7%((E1t$rD((94Uy=8
Xr=$3W%8
.ends ref_optinv
** End of subcircuit definition.
************************************
** Library name: rnr_ioi
** Cell name: ioi_ol_4to1_mux
** View name: schematic
************************************
.subckt ioi_ol_4to1_mux in0 in1 in2 in3 out sel0 sel0_b sel1 sel1_b sel2
+sel2_b sel3 sel3_b in4 sel4 sel4_b
.prot FREELIB
H]=3g\#M+)P\,##M2)P\,.8
o!2x78H#k9R/2/0%iQ-xD\%#o!c7!G%<wI=A487% -/b:(X# tw[!t8z(39CiYu*q
$r$*P!Jj(9$\H#2);bahL
)CP:w[H$9<=390(3=/F:m4'$)Cs N='t7x -D[23#Q+h/*:$#:#+N23/_3wI]A46[
a=2)1-PIJW2j8za0'K-[Z
FhJ##+'xut,-w<*IJ.-#VrXxFh6SD'X22,#Qm+9IZYX++W/xZ 4\D9y0*77xT-D$0
o,*((E1tP7*[!=g(:9qpy
38s$4\3:B2LS7z)fud/$m$2:38gjo[299CZYu\wf=A:zXU+:=_78o<5<) 2,.Qm26
:l6_Jx($126dc Z*6Uy=8
o!/x78X#k9R12/0%+Q-xD\%#o!c7!G%<wI=A487% -/b:(X# tw[!t8z(39CiYu*q
$r$*P!Jj(9$\H#2);bahL
!$ 2y.'l
.ends ioi_ol_4to1_mux
** End of subcircuit definition.
************************************
** Library name: rnr_ioi
** Cell name: ioi_sddr_ff2
** View name: schematic
************************************
.subckt ioi_sddr_ff2 ce_b clk_b d gsr qmbb_out qs1_fb rdq_in rev sr srq
+srselq_b synchq
.prot FREELIB
7Wu+77DW+*7h(h# 9x ts7D$ 5XfH6sd'x2G3+sWi=aj$,\((E1tP7\[!=g(:9qp:d$*7[
a=2)1-PIJW2j8za0'K-[Z
FhJru:%='G7G=.c32[,WwO]xFh6SD'X2g3+SwI=AH$,\((e1Tp7\[!=G(:9QP:D$*7[
a=2)1-PIJW2j8za0'K-[Z
FhJr3:%$2:0:s6w[7jX8
o!uvs$y[2'96( 69#+w7:l
)C3#ix3va/#+9Gu:7\) [*T$#<23'12'4/2z57($u\((e%:p7% -/b:(X# tw[!t8z(36
:46_Jxc/123.q+H/*:$.:#+n23/_3Q
7Wu)*7')6903/0%%q-XU:9<=49[(J=JI:38GJO[299czyx+U(/Xl8_Jx($10
o#:#+n23/_3Wi]a:ZbJ+:r$*P!Jj(9$\H#2);bahL
)C3M(xZt%3+#9>LM7G=.c32v.#o!c7!G%<wI=A:zBj+:R[*p!jJ(9[\h#2);BAHl
TxT-/bJpX#=2)1-pijw2J8ZA0'k-[z
FhJ]P:50#8s/;'X=gx7z54903_60w4o32'4/2z57($u\((e%:p7% -/b:(X8
_+J8ZA0'k-[x46_jXC/123.Q+h/*:$.:#+N23/_3q
7WuS77_9:b6n.-#K;>XzT%3+#9e7.%2$ *X48_Jxc/123#q+H/*:$#:#+n23/_3Q
$d$*P!-+(9iIyx++w/XI 4\d9Y0*7[
4#m:u280sp(:XzT%3jw9gU:7\) [%:$)cS n='T7X -/BjPx#=+)1-PIJW+j8za0'K-[Z
$,.Q+h'1:$,*((e1Tp7*[!=G(:9QPY
38))H#$<<[a.y[2'903_7z54c32v.#o!c7!G%<wI=A:zHj+:R[*p!jJ(9[\h#2);BAHl
TxT-/bspX#=2)1-pijw2J8ZA0'k-[z
FhJv4:=2'7B]w%*d/$#<23i*2v1S$:38gjo[299CZYX+L(/xL8_jX($128DC z*6uY=8
_I]A:z>j+:R$*p!jJ(9$\h#2);BAHl
)C3>2xZt%33M9[(j=ri:=2'7HYw+*7H5e#o!c7!G%<wI=A:z>j+:R[*p!jJ(6
:z 4\d9Y0*77Xt-/BvPx#=2)1-PIJW2j8za0'K-[Z
FhJv,:B62/8z)f>xu:9<=4c3280SP(:xFh6SD'X22,#Q+h'1:$,\((e1Tp7\[!=G(:9QPY
8CiYX+u(/xL6_jX($126DC z*6uY=8
oU]j2v1S$:=2'7H]w+*7H(<#yO%xi>mzwI)1-)7%((e1T$Rd((94uYX8
oU=U2v1S$:=2'7HUw+*7H(<#y<BxZ>mzwI)1-)7%((e1T$Rd((94uYX8
o!ujH$9p %Fn280SP>sxZt%3i#9E7.#[ O'x48_jXC/123#Q+h/*:$#:#+N23/_3q
$d$*P!-+(9iIyx++w/XI 4\d9Y0*7[
4#m2%2/8#59\X!/8# 9x +)74#q=.3s7X -/BjPx#=+)1-PIJW+j8za0'K-[X46_Jxe/10
o,*((E1tP7*[!=g(:9qpy
38);B#$<<[a.y[2'9=uE#GsO57;.-#o!c8Z<7x -/b)0X#=+)1-pijw+J8ZA0'k-[z
$,.Q+h$1:$,*((e1Tp7*[!=G(:9QPY
38)9<#/9c3280SPp$xFh6C 69CZYX+u(/xL8_jX($128DC z*6uY=#m2)1-5Xjq
$r$*P!Jj(9$\H#2);bahL
)C3)2xZt%3Jp9[(j=r,:38gh#9wI=A:zBj+:R[*p!jJ(9[\h#2);BAH$u*((e/:p[
a=2)1-PIJW2j8za0'K-[Z
FhJ5J:=2'7<]w'BOZ[6d$ 5xFh6C 69CZYX+3C/xL8_jX($128DC z*6uY=#m2)1-SBjq
$r$*P!Jj(9$\H#2);bahL
)C3)(xa3g/F:kI]$)Cs!=-2,#Q+h:v:$,\((e1Tp7\[!=G(:9QP:D$*7!-+(9IiYX++W/z
$6DC z*6uY=8
o!u*J$y*w4o32'4/#+\x48_jXE/123#Q+h/*:$#:#+N23/_3wI]AJ$,*((e1Tp[
atTW[!T8Z(36
e7sI;W<YN2/8_S[9e7.4\Y:d[*P!-+(9izyx++w/Xz 4\d9Y0*77Xt-/BYPx#=2)1-PIJQ
$]_78O<5<) 0
'4;j>9NOX7_9:38GH#9Wi=a:Zh5+:r[*P!Jj(9[\H#2);bah$U*((E/YP7%t-/B:(x8
_2J8ZA0'k-[z
FhJUH:=2'7<vw+*7H)>#o!c8Z<7x -/bs9X#=+)1-pijw+J8ZA0'k-[x46_jX>210
o,*((E1tP7*[!=g(:9qpy
38)(i# 9X T)7\) [*)$)Cs!=-2,#Q+h:j:$,\((e1Tp7\[!=G(:9QP:D$*p!vH(6
:l6_Jx($126dc Z*6Uy=8
o!u*V$#<23'1280SPWixFh6C 69CZYX+H>/xL8_jX($128DC z*6uY=#m2)1-)Xjq
$r$*P!Jj(9$\H#2);bahL
)C3E/x!/8# 9X T(74#Qw[P$u\((e%:p7% -/b:(X# tw[!t8z(39CiYX+u(/z
$3.Q+h/*:$.:#+N23/_3q
7Wuv77\) [/E$#<23:*2'4/#+\X48_Jxc/123#q+H/*:$#:#+n23/_3Wi]a:ZbJ+y
8IiYX++W/xi 4\D9y0*7[
4#m(*280spe'XzT%33m9e7.4\Y:d[*P!5+(9izyx++w/Xz 4\d9Y0*77Xt-[BjPx8
_f]A:zXU+:]_78o<5<) 0
'4;,(903/0%%q-XU:9<=49e7.4\Y:d[*P!-+(9izyx++w/Xz 4\d9Y0*77Xt-/BjPx8
_f]A:zXU+:]_78o<5<) 0
'4;,>9NU76:f:=2'7>-W7WD78+#M+)1-0xJWF=a:Zxu+:=_78O<5<) 2,.qpH'1:L
T%T-/b:(X#Ttw[!t8z(36
e7s>yW4O32_\0fqM4'$)cS!=-2,#qpHS1:$,\((E1tP7\[!=g(:9qp:d$*)7%t-/B:(x8
_2J8ZA0'k-[z
FhJ]H:=2'7<vw<<[ada#k;>xFh6\V;'x48_jXE/123#Q+h/*:$#:#+N23/_3wI]A:zBj+Y
8IiYX++W/xi 4\D9y0*7[
4#mSu2[0/f:=2'7hyW+*7h(h#O!C[d:b#M+)1-)$JWF=a:Zxu+:=_78O<5<) 0
oU*((EJ:P7%t-/B:(x#tTW[!T8Z(36
BM8.'v 6
.ends ioi_sddr_ff2
** End of subcircuit definition.
************************************
** Library name: madan_work
** Cell name: sim_ddr_mux_model
** View name: schematic
************************************
.subckt sim_ddr_mux_model clk1_op clk1_op_b clk2_op clk2_op_b d1_b d2_b gsr
+latch_en_o latch_en_t o_out oclkm oclkp od_inv od_inv_b ot_inv
+ot_inv_b s1_o s1_t s2_o s2_t s3_o s3_t s4_o s4_t t1_b t2_b ts_out
.prot FREELIB
7W7G/YD5qj_h$+ZK:Ki]7-/2:xD 76:[:\0U$OZ5:xDn>=/f:=2'9j-W6b02<YDW+*7Ys>#Y<bXp/98
_+*7)S>#yO%xZt%rH(98Dh6z;Oyd\ =/ 9Dz
Fhm/kO%6g D3w6B02[,WP[c.2W6dPQJ_2<9zwzB62W6_93c3280SH(sxP/9#yO%xZt%5P>9-u/79k<6
:zT%;4m9- V7\) IVt$4T#qbP :6:[3C[(,[
4#!M8Gw.s#+\%G[,wtu9- V7T/F4m2[,wS0]778+/939>lm6Tt W[p.\-Q
$Ki].M*2!=-G6=#/F4Dd6%c 6C$j$Mg=.]XzT%u+(9PCPp#;_[)2V601(+X .-mpV6
:zT%u+39- V79;o9- V7D1m[)2VW;+V9PC5E1Woh%v%7D1c$)2VW-hV9PC5<1Q
$%Rj)p#;_'uQ$YmUc+X #b3E:%RjPp#;_[FQ$Ympe+X #=uE:%Rh9p#;_[VQ$Ymp>+Z
$vw33v9pc7B1wOH H%7d13/)2vw]e:%rV%7d1W+x #$1wOHvq$yMiv9pcSP#;_')0
oY/f_U Q$Y/f_U1Q$Y/f_'FQ$Y/f_'HQ$Y/f_'*Q$Y/f_'JQ$Y/f_'VQ$Y/f_'/QL
Tds[H%)%7ds[H%J%7ds[H%H%7ds[H%:%7ds[H e%7ds[H V%7ds[H T%7ds[H y%[
a;q-Rh0p#;q-Rh)p#;q-Rhsp#;q-Rh5p#;q-Rh7p#;q-RhPp#;q-RE%7DS[hHQL
Tds[H*q$y/F_2)2v601p+x .-Miv9pgxw;e:%d/#B1w!m8gW.S#+\%g[,WTU6
>S;7TSo[=2<9ZW%)H:P!J$y
k/y$s%\3-dD$+zk:kA)z<:q
%:12[,w3[C72<9ZW%)u-0d8
/Msxa3g;FQmxP/9#/-ub+ [
gI397U.S%\qO%G8M9W6b02[_;xPjZ
a)i#VQ% 2<9zw%)%-)D8
/p2x'.aKPQ-xP/9#/-2b:pD8
/M[xa3g/V2X8Z<6*uQRp2<9zw%)%-0D8
/p'xD.%3w6B02[_-X>Jz
a5J# 9XhJ579k<9>**>jX(/=0
[byW%r,Gw.s#+\DI579K<9>*5!R[y
kU)$s%\Qm$'h#9sU'dLv79k<9>*5!r[Y
k V$#<2E'12<9zw%)v:p!j+'6
>Ss7sKqKi]..3S+M-2<9ZW%)u-0d8
/>sxZt%5JC9-u/7G(Ce/\l
svu:X0g[,Ws2'dZW+#y<BxaYJ+4t6
>j07TSo[D\ 79K<9>*(!JhT6
>j;7g=.C.IJ4\YqO 2<9ZW%)%-0d8
/>:xa3g3FQXxP/9#/-ub+ [
gU)9[(JIVh:\0U$SqpH$%\L
sri:=2'9ijw6B02[_Y+(e1;l
s3,:=2'(ejw6B02[_r+(e1:G[
g3P9.A3G/9cC[d<79K<9>*s!R[y
k%T$s%\Qm$'h#9sU'xP/9#/-'b+ [
gU(9[(J>3l:\0U$SqpH[_0
[hRW0Ki]..3S+M-2<9ZW%)u-0d8
/3ixZt%Y+C9-u/7G(#/1-p18
/p9[(jH5H:\0u$sQPhi_0
[># 9x*v*79K<9>*0xJx(/=0
[=# 9x*h(79K<9>*7!R[y
k T$#<2W:/2<9zw%) -*=:q
%IV2w6_93C32<9ZW%)J-Px:Q
%$XzT%ulc9-U/7g(P/1-Px[Q
%(XzT%ul)9-U/7g(3E \L
s3i:=2'(B5w6B02[_3XpJz
aSH#/f4dD6%C 6cMH.,dw6B02[_-XpJz
a7X# 9Xv+p79k<9>**>jX(5z
a7J#VQX gxR:w6B02[_3X3Jz
aS7\) $1+$+zk:kAHz<:q
%[ 280sj)SXp/9#/-[Bh(d8
/M$xa3g-FQmxP/9#/-ub+ [