** End of subcircuit definition.
************************************
** Library name: rnr_spice_sanjay
** Cell name: rcload_normp_e
** View name: schematic
************************************
.subckt rcload_normp_e in out
.prot FREELIB
%/X7879K<9>*7!u[y
k 2WRSw6B02[_3XWJz
3p7C :m4'$8Qu(6
BM8.'v 6
.ends rcload_normp_e
