** End of subcircuit definition.
************************************
** Library name: rnr_spice_sanjay
** Cell name: rcload_deloutp_e
** View name: schematic
************************************
.subckt rcload_deloutp_e in out
.prot FREELIB
%/X7879K<9>**!V[y
k 2WRSw6B02[_YX>Jz
3p7C :m4'$8QP([z
-\#*50Xz
.ends rcload_deloutp_e
