** End of subcircuit definition.
************************************
** Library name: rnr_spice_sanjay
** Cell name: rcload_predn_a
** View name: schematic
************************************
.subckt rcload_predn_a in out
.prot FREELIB
%/X7879K<9>*(<:Q
%[Xd\%#Y<bXAyIR[y
y12h##VrXx3YJ;+Y
e4Z68t2Y
.ends rcload_predn_a
