** End of subcircuit definition.
************************************
** Library name: rnr_spice_sanjay
** Cell name: rcload_predp_es
** View name: schematic
************************************
.subckt rcload_predp_es in out
.prot FREELIB
%/X7879K<9>*sE:Q
%[Xd\%#Y<bXAyj][y
y12h##VrXx3Y=UPY
e4Z68t2Y
.ends rcload_predp_es
