** End of subcircuit definition.
************************************
** Library name: rnr_spice_sanjay
** Cell name: rcload_normn_d
** View name: schematic
************************************
.subckt rcload_normn_d in out
.prot FREELIB
%/X7879K<9>**d8
/39.mj79k<9>**D8
5(98Z$m$2:yAH([
+!+]6dJ[
.ends rcload_normn_d
