** End of subcircuit definition.
************************************
** Library name: rnr_spice_sanjay
** Cell name: rcload_deloutn_a
** View name: schematic
************************************
.subckt rcload_deloutn_a in out
.prot FREELIB
%/X7879K<9>*0d8
/39.mj79k<9>*0D8
5(98Z$m$2:yAJ0[
+!+]6dJ[
.ends rcload_deloutn_a
