** End of subcircuit definition.
************************************
** Library name: XI_MacrosLib
** Cell name: xi_nand3
** View name: schematic
************************************
.subckt xi_nand3 A B C Y
.prot FREELIB
H]=3g\#M2)123.q+:]_78O<5<) 2,#q+:r[*P7\[!=g(:9qpy
3$H$2#$:\p $+d;:]MD/7x(I]xLY,*w+3Ai 4\D9y02\yQ+:00*7[
4tc9o2X79;o9- V7*90bX4yU*WF)iI$#4(2j8za0'K:0P*77$K-[Z
F6J#::kxPvy#yO%xi>mzwI)Ci$,Q=29[FY.:#+N23/7$;-[xm/_jq
7=%280s3w93280s3m9-U/7\90bX4yU\WF)iz$#4(+j8za0'K:0P*77$K-[Z
F8=#::5xZt%;J:\0u$#KV<9C*,##=-R[28)Q tw[!t8zwr%A:$Rz(36
ezs7\) Uu2[79K<9-U/7\90bX4yU\WF)iz$#4(+j8za0'K:0P*77$K-/Z
-\#*50Xz
.ends xi_nand3
