** End of subcircuit definition.
************************************
** Library name: XI_MacrosLib
** Cell name: xi_nor3
** View name: schematic
************************************
.subckt xi_nor3 A B C Y
.prot FREELIB
H]=3g\#M+)123#q+:=_78O<5<) 2,.q+:r$*P7*[!=g(:9qpy
3[)$2#/:\0u$+zk:=MD/7x(I=xLY,\w+3AZ 4\D9y02\yQP:00*p[
4 c9o2X79K<9-U/7\90bX4yU\WF)iz$#4(+j8za0'K:0P*77$K-[Z
F8=#::5xP/9#y<BxZ>mzwI)CZ$,Q=+9[FY#:#+N23/7$;-/xm/_3q
7]u280s3c9>2<YDW6%P26\TK:da467%(F]Xz'_*[!=g(:9#!o) 2\9q+y
3$J$#<2M2x/$#<2M'xPvy#TUm02,_xT:RAL67\o-]_78o<5<94 Y=#!<) 0
'.3W89=280s3)9- V7*90bX4yU*WF)iI$#4(2j8za0'K:0P*P7$K-[Z
-\#*50Xz
.ends xi_nor3
