** End of subcircuit definition.
************************************
** Library name: XI_MacrosLib
** Cell name: xi_nand2x
** View name: schematic
************************************
.subckt xi_nand2x A B Y
.prot FREELIB
H]=3g\#M+'a:$,\U-/X48b/[!=g(:9qp:d[hyx#=+[a:$U\pqj8za0'K-[X46=q+:r$hyx8
_I] g 4\D9y0*77xTC)123.-((9Ci56:#+N23/_3q
7=%280sU(932<9ZW6b028\TK:da48b#=-r[j$#4(i=%G 4\d9Y02\Yqp:00*P[
4 39o2g7\) '12<9ZW+O.U$UqM+[Xly,\p:=e*,#3STW[!T8ZWR%a:$rZ(36
eI77PW'9- V79;o9$Ow9#M-d$h$,q=2[Xz'_Xt3C_78O<5<94 y=#!<)10
'.-W8932<YDW6%P26\TK:da46b#=-r$j$#4(i]%G 4\d9Y02\Yqp:00*P[
+!+]6dJ[
.ends xi_nand2x
