.GLOBAL vss vdd vcco vccaux
.PARAM dfln=0.07 dflp=0.07 dflnn=0.07 dflpn=0.07
.PARAM dflnmlvt=0.1 dfln12=0.12 dflp12=0.12
.PARAM dfln15=0.12 dflp15=0.12 dflnt=0.24 dflpt=0.24
.PARAM dflntt=0.27 dflptt=0.27
.PARAM dfwn=0.2 dfwp=0.2 dfwnlvt=0.15 dfwplvt=0.15
.PARAM dfwnmlvt=0.16 dfwnmox=0.16 dfwpmox=0.16
.PARAM dfwnt=0.36 dfwpt=0.36
************************************
** Library name: XI_MacrosLib
** Cell name: xi_tgate
** View name: schematic
************************************
.subckt xi_tgate A C CB Y
.prot FREELIB
H]=3g\#M+)123#q+:=_78O<5<) 2,.q+:r$*P7*[!=g(:9qpy
3[H$2#/:5xP/9# Um02,_x :RAL87\o-=_78o<5<94 YX#!<)10
'.3W89>/$1#Yo%XI>MZWi)cI$,q=29[fy.:#+n23/7$;-/XM/_JQ
H0[I:MsQ
.ends xi_tgate
