** End of subcircuit definition.
************************************
** Library name: rnr_iob
** Cell name: iob_lvds_predrvr_tg
** View name: schematic
************************************
.subckt iob_lvds_predrvr_tg in out sel_n sel_p vcc
.prot FREELIB
7=D'a7T! 90(36\W!=Xp/9# uM0'w)-4:dahP7%((E%S$rD((94Uyx8
o2c7!$m$2:B2L..##+9-a[7*90B7D'BrwI) :$,Q+h'/2\yQ+:00*p[
+!+]6dJ[
.ends iob_lvds_predrvr_tg
