** End of subcircuit definition.
************************************
** Library name: rnr_iob
** Cell name: iob_lpf
** View name: schematic
************************************
.subckt iob_lpf ghigh_b in lpf_byp_b out vcci
.prot FREELIB
7W*:$#<232J280sp)UXfH6c 69czyx+U(/Xl8_Jx($128dc Z*6Uy=#M2)1-)xJQ
$r$*P!Jj(9$\H#2);bahL
)C,32x!d42*Q-xL6D/F8]d/$#<232j2'4/ '=pJ$u\((e/:p7% -/b:(X# tw[!t8z(36
:46_Jx>/123.q+H/*:$.:#+n23/_3Q
7WiI 6%YFb;280sp)UXp[ScW+*7h(j# 9x Y;7\) [Jv$+g/!98dX6s=6b;'76-4y
3Ii 6G$29-u/7t! 9-u/79k<9[oW9SV7'v2,_3Jh$xLY=# 7)Ue$Rd((94uYX8
o+ixD\%# 9X TS7C :\0u$#KV<X.F5<#m-/b)*7%((e%+$Rd((94uYX8
5>9[(jX3,C9[(jX3LW96**!Y\Y
yv280S+3s*280S+3s/2:_YXE4z
397\) / V)7\) / e97'(Eeh]l
8Uw+*7:7erw+*7J9>#5-sbVM[
'p:M4'$#<2([Fv$8qlHS,0
:b# 9x1h;$# 9x1h;<#5-SBvm[
'3:=2'P=]3:=2'P=]U:YavZ>wQ
;CiI j# 9x E97\) [Hv$8qlHS,0
:6%tT:XzT%3le9[(J=]I:YavZ>wQ
;CiI hVW+*7+Pb# 9xu+;7'(eEH]L
8/=2Jv280SP#:xZt%-+(96**!Y\Y
ydL6D-w+*7s;e# 9X e97'(Eeh]l
8/=2Jj280Su(/xZt%-+M96**!Y\Y
ydL6DUw+*7JpJ# 9X%H07'(Eeh]l
8/=2JUV$#<2C'j280S3E/x3Y>+L.6
6G3.:3P9[(JbJ,:=2'5=-W;)H-*G8
5QR$\S$# 9X%H57\) '%T$8QLhs,0
:6%tTSXzT%-pP9[(Jb3l:YavZ>wQ
;CiI E# 9x%h*7\) '%h$8qlHS,0
:6%tT[1280sUc[XzT%RU396**!y\y
ydL6DU,:=2'0HUw+*7+9X#5-sbVM[
'SF]_)(7\) '%t$#<2c'J2:_yxe4Z
3.,*[p'xZt%v+#9[(jB-,:yAVz>Wq
;CiI =5W+*7js<# 9x%)57'(eEH]L
8/=2J +$#<2Cuj280SuMix3Y>+L.6
6G3.:p3/XzT%-3#9[(Jb;l:YavZ>wQ
;CiI >RW+*7j0$# 9x%S07'(eEH]L
8/=2Jhs$#<2C:v280Su>sx3Y>+L.6
6G3.:lm9[(JbVl:=2'5<3W;)H-*G8
5QR$\*B# 9X%+77\) 'vs$8QLhs,0
:6%tTS 280sUP:XzT%-4m96**!y\y
ydL6DYH:=2'5<]w+*7J0$#5-sbVM[
'SF]_v(7\) 'J:$#<2cIF2:_yxe4Z
3.,*[3/f280Su)uxZt%-3#96**!Y\Y
ydL6DYL:=2'S=5w+*7J9X#5-sbVM[
'+:=2'P=]l:=2'P=]3:YavZ>wQ
;CiI =JI:=2'5EyW+*7j;x#5-SBvm[
'SF]_E97\) 'FY$#<2cSu2:_yxe4Z
3.,*[3[f280S3([xZt%vH396**!Y\Y
ydL6D3+p9[(jB]+:=2'5>]w;)h-*g8
5QR$\;># 9X%e07\) 'fJ$8QLhs,0
:6%tT(*280sU#2XzT%-,P96**!y\y
ydL6D3+M9[(jB],:=2'5eYw;)h-*g8
5QR$\7Bjw+*7J9># 9XU:77'(Eeh]l
8/=2J :(7\) u1+$#<2M//2:_YXE4z
3.,*[#:xZt%;P>9[(jJ33:yAVz>Wq
;CiI >]W+*7S9$# 9xuh97'(eEH]L
8/=2J e$#<2pi1280S3C(x3Y>+L.6
6G3.:4#9[(Jj-3:=2'sb-W;)H-*G8
5QR$\9B# 9XUJ97\) u%+$8QLhs,0
:6%tT[H280s3c(XzT%;Ue96**!y\y
ydL6D53:=2'0B]w+*7)5$#5-sbVM[
'SF]_+77\) '%E$#<2>$F2:_yxe4Z
3.,*[3$xZt%;uE9[(jB;u:yAVz>Wq
;CiI b-W+*7))j# 9xuSP7'(eEH]L
8/=2J%)$#<2M2*280S3>ux3Y>+L.6
6G3.:,#9[(Jb]U:=2's<5W;)H-*G8
5QR$\7X5w+*7J*e# 9XU:07'(Eeh]l
8/=2Jf+$#<2CsU280S33:x3Y>+L.6
6G3.:p(/XzT%;4)9[(Jj5U:YavZ>wQ
;CiI hRW+*7)0E# 9x/h;7'(eEH]L
8/=2J :77\) ujJ$#<2M2 2:_YXE4z
3.,*[p$xZt%;J(9[(jJ5i:yAVz>Wq
;CiI bVW+*7)*># 9xuY(7'(eEH]L
8/=2JvV$#<2M'%280S3W/x3Y>+L.6
6G3.:h39[(Jj-4:=2')=5W;)H-*G8
5QR$\;=# 9XUT(7\) :jT$8QLhs,0
:6%tTUF280s3e/XzT%;j#96**!y\y
ydL6DUi:=2')B3w+*7)*B#5-sbVM[
'SF]_S*7\) UHY$#<2>(12:_yxe4Z
3.,*[CixZt%;L#9[(jJYL:yAVz>Wq
;CiI $RW+*7);b# 9x/)77'(eEH]L
8/=2J H07\) uf+$#<2>$12:_YXE4z
3.,*[#'xZt%v+)9[(jJUJ:yAVz>Wq
;CiI b5W+*7S7b# 9xuv;7'(eEH]L
8/=2J*+$#<2Ms%280Si(ux3Y>+L.6
6G3.:,m9[(Jj33:=2')x5W;)H-*G8
5QR$\0J# 9X/Hp7\) :1e$8QLhs,0
:6%tT'*280sI)UXzT%Vpc96**!y\y
ydL6D5+:=2')=5w+*7)5J#5-sbVM[
'SF]_S97\) : E$#<2>[H2:_yxe4Z
3.,*[WuxZt%vuW9[(jH-P:yAVz>Wq
;CiI j;W+*7S5<# 9x/j)7'(eEH]L
8/=2J*J$#<2>'h280SiC$x3Y>+L.6
6G3.:h)9[(Jh;p:=2')jJW;)H-*G8
5QR$\7=3w+*7JS># 9X/V57'(Eeh]l
8/=2J :*7\) u1s$#<2C2U2:_YXE4z
3.,*[3/%280S3)[xZt%-,#96**!Y\Y
ydL6DUH:=2')X;w+*7+Se#5-sbVM[
'SF]_tP7\) :VS$#<2PI*2:_yxe4Z
3.,*[)$xZt%v3(9[(jHru:yAVz>Wq
;CiI $yW+*7S0b# 9x/+07'(eEH]L
8/=2Jje$#<2>iv280Sip:x3Y>+L.6
6G3.:p3$XzT%Vh(9[(JhRj:YavZ>wQ
;CiI =3l:=2')$3W+*7S9x#5-SBvm[
'SF]_j*7\) :JS$#<2>2u2:_yxe4Z
3.,*[#/xZt%vHW9[(jH5H:yAVz>Wq
;CiI =3I:=2')IJW+*7S(j#5-SBvm[
'SF]_h7j# 9x/ts7\) :*j$8qlHS,0
:6%tT[ Y$#<2>I*280s3#IX3y>+l.6
6G3.:4(9[(Jhu,:=2')E3W;)H-*G8
5QR$\7=-w+*7s*B# 9X/T57'(Eeh]l
8/=2JUs$#<2>'/280Su((x3Y>+L.6
6G3.:4>9[(J<3I:=2')=JW;)H-*G8
5QR$\)e# 9X/e77\) :f:$8QLhs,0
:6%tTU1280sI#2XzT%RIP96**!y\y
ydL6D;P:=2'0=Uw+*7s;$#5-sbVM[
'SF]_h$4\W+*7S;E#5-SBvm[
'SF]_Ss7\) I1+$#<2P/%2:_yxe4Z
3.,*[>'xZt%r+E9[(j<j4:yAVz>Wq
;CiI h3W+*7+7=# 9xV:*7'(eEH]L
8/=2J/:$#<2M$f280S43[x3Y>+L.6
6G3.:4P9[(J<34:=2'0=VW;)H-*G8
5QR$\SB# 9X/J07\) i T$8QLhs,0
:6%tT[ 280s4c[XzT%RU>96**!y\y
ydL6D3u:=2'0Bvw+*7+5i#5-sbVM[
'SF]_hs7\) I%t$#<2P'J2:_yxe4Z
3.,*[):xZt%;,C9[(j<-,:yAVz>Wq
;CiI =VW+*7+5$# 9x%)97'(eEH]L
8/=2J%H$#<2M:1280S4p[x3Y>+L.6
6G3.:jw9[(J<;,:=2'0hyW;)H-*G8
5QR$\0$# 9XUy)7\) i +$8QLhs,0
:6%tT'F280s4>IXzT%Vh>96**!y\y
ydL6DUL:=2'0HYw+*7+)i#5-sbVM[
'SF]_jP7\) IVh$#<2PI12:_yxe4Z
3.,*[>$xZt%vPE9[(jJYH:yAVz>Wq
;CiI I3W+*7+0I# 9x/j*7'(eEH]L
8/=2Jh:$#<2p21280Supux3Y>+L.6
BM8.'v 6
.ends iob_lpf
