** End of subcircuit definition.
************************************
** Library name: rnr_iob
** Cell name: iob_obc_drv_y
** View name: schematic
************************************
.subckt iob_obc_drv_y io loc_gnd loc_vcco opn opp
.prot FREELIB
7= 280sI>9.I87cv:r.A.O\;:=md/%TOmUX4yI+UP9i*P!VWR%ah$rZ((9e yx+3>IXf/_Jxw[XfaSD((EuS074d%ba:ZbV4:=gAw#qUy
3MZjB# 9X/s$,t/QN[ $#<2>:xLWs/D+%xZ>mz203U)$uQJh'v23_jX>94 Y=#!<)12'yQ+hu/+$)z((e*H$)2/O)1-SHrw7N>uYX+u>ixZAst -'z
F>#S+:=2')H#V2=x7W7%V%cGZv7\90B7D'J;wI)*-5<#=-/bs$Rd(394uYX#oO)1-SHrw7BA:zi3w7N> YX+3>ixFAsz((e%s07\D%m[*5[
49+x 280sI>9id[62 o9[(JhVWFM>Ga#DW+O.UJM43m9c*(!-4:ra:Zh#!o) 2\9q+:3P*P!;IP9eUyx+j39e![Yq+HU/+$)2/<)1-5hRW+n>d8_-Q
7] 280sI>9.I67%v%C-A[M#=0KDp[STW2O.UJM43m9c**!;3:ra:ZbyW+3ajP7$;-/XM/_3W7%a:ZjV4:30*P!54P9e![Yq+HU/+$)2/<)1-5hRW+n>d8_-Q
H0[I:MsQ
.ends iob_obc_drv_y
