** End of subcircuit definition.
************************************
** Library name: rnr_iob
** Cell name: iob_lvds_term_enable_aux
** View name: schematic
************************************
.subckt iob_lvds_term_enable_aux Term_Enable_0 Term_Enable_1 Term_Enable_2
+lvds<0> lvds_term_bit<0> lvds_term_bit<1> lvds_term_bit<2>
+lvds_term_ovrd por_b_vcc tstateb vcc Term_Enable_F0
+lvds_term_bit_F<0>
.prot FREELIB
7Wip39HS *6Os7%YobD'T8kS_')2<SgW+*7h7j# 9x h57s);OD(810=9C%26M'S[C-A[[
a#0-D'3+Z* [Dj0[
4#F\iUD6s);O 23+DKqx23>6m+V9-A[7\) $u280sp32X'T8kS9==/30/+:].3.-/Y%KZ
$hm0s R-ud%3sCiz
Fh,9=<Fd't8Ku:R- /6S);odc7P#y%kxZt%3PW9[(j>jw *6o.0\$[R2g77*V;c3g<sGq
$W./.%%Y<f7h.bRQ
7Wip39HS *6OP7%YobD'T8kSTh1Q$+g/:=2'*<# 9xHY$%<5uC2zg-%)qj126M'S[C-A[[
a#0-D'3+Z* [Dj0[
4#PS 280spc/XzT%y,:r- /6s);ODC5p#O!C[;8Y-Wi=ahZ<J+:r[*P!Jj(6
:z 4\d9Y0*77Xt-[B+Px#=2)1-PIJW2j8za0'K-[Z
Fh<Y4:R- /6S);od/h%Muv9IPv9/29yMgW+';:=2'*e#o!c[;8y-wI=AHz<j+Y
8IZYX++W/xZ 4\D9y0*77xT-[b+pX#=2)1-pijw2J8ZA0'k-[z
Fh<34:R- /6S);od/h%/[_/)23+dkQX23>6ty;%xZt%]4:38g81\;C9CZY=+4(/z
$3#Q+h/*:$#:#+N23/_3wI]AHz<j+:R$*p!jJ(9$\h#2);BAHl
)C43sxZt%3u>9[(jerwf\pu.%<5Uc_cpP#o!c[;8y-wI=AHz<j+:R[*p!jJ(6
:z 4\d9Y0*77Xt-[B+Px#=2)1-PIJW2j8za0'K-[Z
Fh<;3:R- /6S);od/h%M+v9IPv9/29yMgW+';:=2'7X3w7wdZG#du:D[*7!r+(6
:l8_Jx($128dc Z*6Uy=#M2) -0xJWF]a:Zxu+:]_78O<5<) 0
'4R3)9ipV9/29YmGX4s13+Xl<YZS *6O.M95o9[(J=JI:38G81\;c9czy=+4(/Z
$3#Q+h/*:$#:#+N23/_3wI]AHz<j+:R$*p!jJ(9$\h#2);BAHl
)C4M:xZt%33C9[(j=jP:R- /6S);odcpP#o!c[;8y-wI=AHz<j+:R[*p!jJ(6
:z 4\d9Y0*77Xt-[B+Px#=2)1-PIJW2j8za0'K-[Z
Fh<;4:=2'7BYw+*7HpH#=6%0gj0'9QH q$)Cs+5[ 57x -[b+pX#=+)1-pijq
$=_78O<5<) 2,.qpHI1:$,*((E1tP7*[!=g(:9qpy
38+*H#2<X='t-#=6%0cpP#=6%0gj0'9Q-8'#B1w+*7H5X#o!c[;8y;wI]AJ$,*((e1Tp[
atTW[!T8Z(39czyb#=+)1-PIJW+j8za0'K-[Z
Fh<-L:X0'G%<F:R- /wje:R- /6S);od/h%/[_/)280SPC:xFh6\$+%U2,.QuY
8IiYX++W/xi 4\D9y0*77x -'xL8_jX($128DC z*6uY=8
o!iUT$%z2'X2/$,9;<H1q$,9;<c7(:\/F!XrH%7\) [%V$)Cs+5[ S7xT-'xL6_jX($10
o.:#+n23/_3Wi=aj$,\((E1tP7\[!=g(:9qpy
38+SB#2<X='t-#=6%0cpP#=6%0gj0'9Q-8'#X1w+*7HSB#o!c[;8y;wI]AJ$,*((e1Tp[
atTW[!T8Z(39czyb#=+)1-PIJW+j8za0'K-[Z
-\#*50Xz
.ends iob_lvds_term_enable_aux
