** End of subcircuit definition.
************************************
** Library name: rnr_iob
** Cell name: iob_outmux
** View name: schematic
************************************
.subckt iob_outmux gts_cfg_b inextest ival ojtag op outb rcfg_ctl op_dly_b
+op_dly_en
.prot FREELIB
7Wut*7\) [/)$0429b7/X7<O *0'X7T! -XfH6sd'x22,#qU:r[*P!Jj(9[\H#2);bahL
TxT-'xL6_jX($126DC z*6uY=8
oU]12WRSF:=2'7Brw+*7V779;O9$oW9#m-'bT$,Q+h/*28)Q4:0p*p7$k-/z
F>.3w+*7V77\) [UH$+d;:\p $.KV<9C*S7%((e1T$#4(#94 YX#!<)10
'.3W007/$M*W+*7v979;o9$Ow9#M-'Bt$,q+H/*28)q4:0P*P7$K-/Z
F6B-w007/$9;F:=2';i#yO%xi>mzwI)%23_jX($xZ'_-wr%A577$k-[z
F6X# 9Xhy$#<23uU2<ydw6%p26\tk:DA)$,Q+h/*28)Q,:0p*p7$k-/z
F6Bjw+*7e(7Cy'RxPvy#yO%xi>mzwI)%23_jX($xZ'_vwr%A577$k-[z
F8=#VrX32W.# 9X H(79k<9[oW9#m-[bs$,Q+h/*28)Qi:0p*==#!<) 0
'#3l:M4'X7Z3:=2'7x5W6b028\TK:dahZ<RWF)1-PI#!o)12\9q+y
3MZp7\) [ s$#<23if2<9zw6B028\tk:DAHzH#=-/b:(7\o-sxmv_.P:00*7[
49+[Xd\%0W+*7h5<# 9x h)79K<9[Ow9#M-[BS$,q+H/*28)qI:0P*==#!<) 0
'#JW+*7h7I# 9x +979K<9-U/7\90bX4y=+I:ra:ZxuW+3av$rD(*[XM/_3Q
7= t$#<23/J2H+[=:\0U$+ZK:=md/7X(3EV+$,q+H/*28)qU:0P*==#!<) 0
'4R+:M$GV,PS[9[(J=-4:38GH#9Wi=ahZjJ+:r[*P!Jj(9[\H#2);bah$U*(3EV:P[
a=2)1-PIJW2j8za0'K-'Z
FhJYw937(/%0w937(/%0F:38gh#9wI=A:zBj+:R[*p!jJ(9[\h#2);BAH$u*((e%:p[
a=2)1-PIJW2j8za0'K-[Z
FhH5w!=2Fj0z2:*E't9SF:38gh#9wI=A:zBj+:R[*p!jJ(9[\h#2);BAH$u*((e%:p[
a=2)1-PIJW2j8za0'K-[Z
Fh<Uw+*7H0e# 9X )774#Qw[P$u\((e/:p7% -/b:(X# tw[!t8z(39CiYX+i(/z
$3.Q+h/*:$.:#+N23/_3q
7WV+$#<23IJ280spmUXfH6c 69czyx+I(/Xl8_Jx($128dc Z*6Uy=#M2)1-)xJQ
$r$*P!Jj(9$\H#2);bahL
)C3)9G'/6G[zc3280SPMixFh6C 69CZYX+u(/xL8_jX($128DC z*6uY=#m2)1-5Xjq
$r$*P!Jj(9$\H#2);bahL
)Cip9[(j=r3:=2'7JUw7wd78+#m+)1-5Xjwf=A:zXU+:=_78o<5<) 2,.Q+h'1:l
T%T-/b:(X#Ttw[!t8z(36
e7sb]W<U32/j#O!C8z<7X -/BSPx#=+)1-PIJW+j8za0'K-[X46_Jx>/123.q+H/*:L
T*[!=G(:9QPY
38+*7tTQ%I#.0\w+*7H)=#o!c8Z<7x -/bJpX#=+)1-pijw+J8ZA0'k-[x46_jXC/10
o,*((E1tP7*[!=g(:9qpy
38)57t8 5G280SP>uxFh6C 69CZYX+L(/xL8_jX($128DC z*6uY=#m2) -9Xjq
$r$*P!Jj(9$\H#2);bahL
)CuW92Fj0z2[9[(j=;J:BU/$)Cs+5[ 57x -/bspX#=+)1-pijw+J8ZA0'k-[z
$,.Q+h:1:$,*((e1Tp7*[!=G(:9QPY
38)SB#)7X2uj-# 9X +S7\) [/e$)Cs+5[ 57x -/bJpX#=+)1-pijw+J8ZA0'k-[z
$,.Q+h'1:$,*((e1Tp7*[!=G(:9QPY
38JS7\) [U+$8G[zc>'37\) [v)$)Cs+m6J$u\((e%:p7% -/b:(X# tw[!t8z(36
:46_Jxc/123.q+H/*:$.:#+n23/_3Q
7WVS$M*SoroGT## 9x S;7\) [VY$)cS+M6j$U\((E/:P7% -/B:(x# TW[!T8Z(36
:46_Jx>/123.q+H/*:$.:#+n23/_3Q
7WVY$#<23: 280sp>(XzT%34#9e7.#T5c9czyx+I(/Xl8_Jx($128dc Z*6Uy=8
_I]A:zHj+:R$*p!jJ(9$\h#2);BAHl
!$ 2y.'l
.ends iob_outmux
