** End of subcircuit definition.
************************************
** Library name: rnr_iob
** Cell name: iob_lvds_drv_ext5
** View name: schematic
************************************
.subckt iob_lvds_drv_ext5 a_bn1_ext b_an1_ext nbias_ext ncom out pbias_gen
+pcom vcco
.prot FREELIB
7=$MT)sp:M4'$-/$+[D('%#t%Mm2<9ZW+O.UJM4UP9c*9!uWF)1-s7\O-[H2\Yqp:00*774;-/B))<#O<)1-0>RW7n> yx+3>IXfaSZ((Euj0[
4 2% 2wrsW'C3z76<O 9[Aw\#Y<bXz>MZ203%+$UqhH$J23_Jxm9[fy=JWR%ah$rZ(39e yx+3>IXf/_JxPSV2'Og;-/B))<#OZK0*P!;UP6
eI/8gU:]>d>7*f!50Ga0\W6K>d$+g/09$Ow9sv7'V2,_3+HSXlyx+I:=e*07$;-/XM/_JQ
7]03[=#t%Mm26-c$<Cg(879/%MXp[STW2O.UJM4UP9c*7x+l:ra:Zh# 7)V2\Yq+:00*P[
4t0]7U:S3W2K.O$+g/09-A[M#Y%K.26\TK Mej07X(3/Bv$,q+H:Xz'_3U:0P*==#!<) 0
'#Z .M$'77\/0OXp/9#Y<bXp/9# uM0'w)-4:daSZ>VWF)1-)b# 7)F2\Yq+:00*P[
4 <=,h$#gvu9[/H1ZS9372<9ZW6b028\TK Mej07X(>EHS$,q+H:%28)q4:0P*P7$K-/Z
-\#*50Xz
.ends iob_lvds_drv_ext5
