** End of subcircuit definition.
************************************
** Library name: rnr_iob
** Cell name: iob_lvds_term_polyR
** View name: schematic
************************************
.subckt iob_lvds_term Rout_pn1 Rout_pn2 Rvos_pn1 Rvos_pn2
.prot FREELIB
;/X3<MZS2=%280sjm96*7bJx)$Z
3p1jw+*7TS7\) sv2:_5+h'h0
:x[p:=2'(j# 9xH+$8qh(E%vL
8j$C9[(ji;w+*7V07'()/bJ*[
'+'UXzT%u3:=2'*<#5-21-5>8
5(-U280SLp96D\%/T+[x3Y$jXCsz
3p--w+*7V07'VrXdi8=#5-21-5>8
5(- 280SLp96D\%/T+[x3Y$jXCsz
3p-jw+*7V07'VrXdi8=#5-21-5>8
53-U280SPC:x3WRSs2=%2:_5+h'h0
:=0U:=2'7bVW;M4'..\U:YaYP!-ly
y /77\) [%s$8t! c$Z57'()/bJ*[
'p[/XzT%3U>96d\%/t+'X3y$JxcSZ
377'y0Bdi8=# 9X H57'(3'1-9i8
5351280SP3'xZt%3u>96*9X+uE6
6hg=# 9x h57\) [%S$8qh(E%vL
83$C9[(j=3u:=2'7Bvw;)j:zBYq
;[=)$#<23[%280spc:X3y$JxcSZ
-\#*50Xz
.ends iob_lvds_term
