************************************
** Library name: rnr_iob
** Cell name: iob_bias_tg
** View name: schematic
************************************
.subckt iob_bias_tg in out sel_n sel_p vcc
.prot FREELIB
7=D'a7T! 90(36\W!=Xp/9# uM0'w)-4:da)Z<#=-/BS$rD((94Uyx8
o2c7!$m$2:B2L..##+9-a[7*90B7D'BrwI)U-07%((e%V$Rd((94uYX8
Xr=$3W%8
.ends iob_bias_tg
