** End of subcircuit definition.
************************************
** Library name: rnr_spice_sanjay
** Cell name: iob_lvds_drive
** View name: schematic
************************************
.subckt iob_lvds_drive Term_EnableN_0 Term_EnableN_1 Term_EnableN_2
+Term_EnableN_F0 Term_EnableP_0 Term_EnableP_1 Term_EnableP_2
+Term_EnableP_F0 a_out b_out cbit_diff15_vccaux cbit_diff15_vcco
+cbit_diff18_vccaux cbit_diff18_vcco cbit_ext_vccaux cbit_ext_vcco
+cbit_ldt_vccaux cbit_ldt_vcco enable_vccaux enable_vcco
+enableb_vccaux enableb_vcco in nbias pbias por term_a_out
+term_b_out vccaux vcco
.prot FREELIB
%/X;8=/f:\0U$SqI(E%E [
gp:-[)$+ZK:Ka+ZER3T6
>j$1\3:\0U$SqhHU/v [
g3:-[h.-#Y<bXAyh3xP[_0
[h#$+'Xp/9#/-I -5=:Q
%IX;8=#Y<bXAyERxeI_0
[$#f+'Xp/9#/-I1-7h:Q
%$X/8=#Y<bXAyE-x)U_0
[>#$+[D('%#Y<bXAy<3x(jZ
a;70 3c2Fj79k<9>*)e+JEJz
a7X#F+[d('%/V+RO2<9zw%)/)z=Y[Y
k H$1\PQ*E'.m\=89-u/7G(>ubH(D8
/3'xi[mKw6B02[_3X):%il
s33:=>D>79k<9>*(<rXp'_0
[=VW6M0G6#3W6b02[_u3eEu\L
s34:\.u..\u:\0u$sQJ(ubT [
4# *6O$1/vRxX/.M$2:\.U..\p:\.U..\U:W./.,9;<C7(:\8
o!=.3S6%; c V.=rs'0E2[-C2QRp'.+G/'0E2[-C2Q%8\ =rs6k>;\)8
_%-8'.yC[t[hg<sG$r3xax4Ssf%7g7</PEc-a[1$oQ-xP[s[!79E7.%\V;uz
$,#;((ej:p7% M)1-5HjwI=Ug 4\D9y0*77x C)1-9Xjwf=%*p!-i(6
:48b/[!=g(:9qp:d[hyx+h(/Xl8=q+H'/:$U\pqj8za0'K-[X46bqpHS1:L
T%TC)1-5HjwI]%g 4\D9y0*77xT3) -*Xjwf] *p!-i(9Ci76:#+N23/_3q
$d$)y=+l(/Xl6jq+H'/:$U*3qj8za0'K-[Z
Fh-C$<cMm'0zw%-8'.yC[t[vg<sGV:k37j6d#tJ V.+G/09>/h%/)7XdP[stq
$K37J6%; C-A[M#)+53lT69/%MX(810=9-Dp[STW+-8;/7\f!50GT)sW+-8;/62)+6
:zX4[KqrP'77\f!50G3YsU:]37g9#t[W=U.O< :]37g9/=o[7/.O< y
8$/h1zsf%7Jx62)+9-a[m##0-dL<yzs[w=u.\$oY
3IPv9/$Q*E'$1\PQ*E'$-\PQ*E'.m\=89[/h1zs93728st9:5dD\%#T[w=u.o< :]>D>[
aY%K.2HM0SF\PU.Y'Yq*e'0[
4=6%0GX6<O 93z76<O 9=z76<O C.z32# [W=U.042:=>d>70S00726-c$<Cg(87*/0OZ
$<sGV:w./.,9;<cp3<6<o iz
Fh,9;<c=2G#3w[= gx7[ 39=Z570 393Z770 C9[/h1zsz*[28-C$<cI j=# [w=u.,d2C6
:z[MkW'C.MJ7*f!50Ga0\W2-8;/6%;3x3Ga0\W2-8;/6%; '3Ga0\W2K.O$+g/06
:7w-/=6%0GV895P6
e73+DKq-X/8=#$+[D/$-\p:-[j$1\p:5[h$1\U:=37g9/d9=XzX4[KqrP'77\f!50G3YsUy
8[aW\#FQm4'$.0#'Bd!t##T[w=u.,dP -d!t##T[w=u.,d2C-d!t##T%mM2<sGVY
88Dx6%yOBd :+'4Y
38 hD:s *6o$%<5Uc2ZG-%)+c12j0'9Q*[;x,< Q[x't8Ks9==/30\sC6
:'T8kS9==/30\ST/X'T8kS9==/30*S(97(:\/)+53lT./p:x23>6< '-i(66-Q
$x23>6< '-i(66:+:5Dd\%#fqM4'$+g/09-d/6* 39-d/6* c98dX6%YobD Jb8
o!$/:$s0# cI j634Q[hg<sG$r3xax4Ssf%7g7</PEc-a[1$oQ-x/8=/)7Xz
$x#3s937gW#%::\>aGR4w!m3gjo/=OXdi\yCk'-I(l
)CJ>[xax4Ssf%7g7</PEc-a[1$o:k37j6%; c +.=Ys6k>;\)/F:5[H.042Y
8=Z76<o c.Z32#y%k=m'7CV[c7!.,d2Q]4 h9[Ff*z
Fh.')Oy-2G#3w'= gx7[ 3c2Fj7[ C9=ZS70 393Z760w[= gt)Sw[=%2x#;q
$K37J6%; C-A[1$O:W[280sU)'XzT%-h)92zg-%)q\>Agr4W9==/300S6K>;\)#t0YZ
$<sG$r3xP[stw!m3g3+dkQ]6(v89q
7W[p.,D2q[HG7<#/[W7G3YsS3IDh*69/%54f.-#Y%K=M'7gf!xDlV%/pPC v.+g/'0e0
o)cS W[p$U\((E*+P7% -/Bj)x# TW[!T8Z(39cIy=+4(/Xl6_Jxc:126dc Z*6Uy=8
o!=-gt)S 0yI j6[!79[(jB5H:\>aGR4w+*7J9B#o!c778+#m+)1-(Xjwf=A:zBv+Y
8[\h#2);BAH$u*(3e/Hp7%T-/bJ)X#Ttw[!t8z(36
e78M'Uq*e'.,D2q54f$S0# C2fJ69/%54f$S0# Ci J634q[HG<Sg$R3XzT%-h)6
:p[S[!79e7.%\v;'X48=q+H$1:$,\p-/Bj)x#M+[D\H#2);bah$U\U-/BtPx8
_f=%*p!-i(9CZ56:#+N23/_3wI] *7!vP(9Ii7_jXC:12,.3stw[!t8z(36
:46bqpH: :$,*U-/Bj)x#M2'D\H#2);bahL
!$ 2y.'l
.ends iob_lvds_drive
