** End of subcircuit definition.
************************************
** Library name: rnr_spice_sanjay
** Cell name: io_lvds_obuf
** View name: schematic
************************************
.subckt lvds clkin clkin_b din1 din2 t1 t2 d<30> d_b<30> d<31> d_b<31>
+ lat_en_out s1_out s2_out s3_out s4_out lat_en_trist s1_trist s2_trist
+ s3_trist s4_trist gsr lvds_m<6> lvds_m<5> lvds_m<4> lvds_m<3> lvds_m<2>
+ lvds_m<1> lvds_m<0> lvds_s<8> lvds_s<7> lvds_s<6> lvds_s<5> lvds_s<4>
+ lvds_s<3> lvds_s<2> lvds_s<1> lvds_s<0> pad<0> pad<1> vbg cbit<10>
+ cbit<9> cbit<8> cbit<7> cbit<6> cbit<5> cbit<4> cbit<3> cbit<2> cbit<1>
+ cbit<0> ts_b vcco vccaux
.prot FREELIB
7W*v779;o9- V79K<9>/H%mp(+XAX4s1#+XAX4s1e+XAX4s1w+XAX4s1)+XAX4s1P+XAX4s1>+Z
$[-C2_u)2[-C2_')2[-C2_[)2[-C2_/)28-C$<9$/h1zw6k>D$+0D:\>aGR4w6k>Dl
TCV[cIPv9/ 2-8;/6%Tt6
e7(>JWohuh%7DS[huh%7D1m/)2V601m/)2V4\p:%8z572K;9i;J6< qM4'$,[2q*[GJ8cK 9.IL
TG=.w[gx7G=.w[2<ydw6B02<ydw6B02/=/VrXxu76S5!B72/B/VrXxu56S5!B72/J/VrXz
$/J/2;w0'$9vs0072/H/2;w0'$%3w 'xZt%3+>907>6d;;cMm'6KVO*I0
:=m,V9-U/7%YobDO#E1W;) -P\8
53Hhq$+zk:R- /6K1E+x3Y=++U6
6h#I1W6b023+DKqORt%7'(3E1OL
8-1#+xZt%3iE9$;vwje:yAySXKq
;/RE%7%YobDU#E1W6b02:_3x(OZ
3Sw]e:=2'7HUw25pc7P#5-2U:>[
4M3(XzT%3Uw9[(J=V+:O%4H8<Wi)1-s<#=-'u2/_Jx3$XO[.q;TO>I>b#9iYa  \X5u'XO:_3Q
$O>*7[
4M3UXzT%33)9[(J=;+:O%4H8<Wi)1-s<#=-'u2/_Jx3$XO[.q;TO>I>b#9iYa  \X5u'XO:_3Q
$O>*7[
4Me9[(J=V+:=2'7j-WuSc7:0#M-/Bj$,qp>/XUyx+Uc9mA6_D[uK$O*7kM;)P\>U'9e9m3y=8
_UkAHl
)xPW9[(j=;3:=2'7J5wU'C7:0#m-/b)07%(CuxuYX+PW9Ma6_d[Uk$o57Km;)p\>u'9C9M3Y=8
_UkAHl
)xP>9IPv9/VQ-xZt%33)9MV,4'):DA:zB#=-(12/_jXC:xo[.Q;to>i>>#9IyA  \x5Usz
$>8QP:o>*7[
4M3SXzT%3I(9[(J=;l:O%4H8<Wi)1-s<#=-'u2/_Jx3$XO[.q;TO>I>b#9iYa  \X5u'XO:_3Q
$O>*7[
4M3[XzT%33)9[(J=V+:OH4H8<Wi)1-57%()IXUyx+Uc9mA6_D[uK$O*7kM;)P\>U'9e9m3y=8
_UkAHl
)C#0-$;h8# 9X s*7%yOBdo#e1wf\pu.\MLv9IPv9/9_$)23+dkQory%7%yOBdo#<1q
$r- /6k1>+Xl<YZSuhuQ$,9;<CmC5p#=6%0G>W3E:r- /6k1(+XIX4[K:=37g9#2<C30
o#<23U%280sp>$XzT%3I#9[(J=R+:r- /6Z1#+Xl<YZS<hHQ$,9;<C0C(p8
_f\pu.9MHv9IPv9/k_i)23+dkQBrs%7%yOBdu#J1wf\pu.9Muv9IPv9/k_[)0
o,9;<C0CPp##0-/GV4:[y
3.mj\$o(9- v79k<9-u/79k<9.i$,9;<c.gx79k<9-u/79k<98Dx6t! o4Fl
+9/%54F..[#;9-a[1$o:=2'7H]q
6\>Aw6*$!YXp[STW+*7h0x8
o![%)$#<23u1280SPp[xFh6C 69CZY=+3W/xL8_jX($128DC z*6uYB#m2) -;Bjwf]A:zXU+Y
8$\h#2);BAJl
)CPC[xZt%33E9[(j=r3:38gh#9wI=AJ$,\((e1Tp7\[!=G(:9Q4:D$*57%T-/b:(X8
_2J8ZA0'k-[10
'43U(9[(J=-j:=2'7<VW7WD78+#M+)%23#q+H/*:$#:#+n23/_RWi]aj$,*((E1tP[
atTW[!T8Z(3/Z
Fh=-u:=2'7J;w+*7H0B#o!c8Z<7x -[b)(X#=+)1-pijw+J8ZA0'k-'x46_3X#'123.Q+h/*:l
T*[!=G(:9QuY
e4Z68t2Y
.ends lvds
