** End of subcircuit definition.
************************************
** Library name: rnr_gt3
** Cell name: gt3_bBiasMasterRCal10X
** View name: schematic
************************************
.subckt gt3_bBiasMasterRCal10X n1 n2 vssA
.prot FREELIB
7YuE$#<2mUXzT%;U:\0Ug7*:<-6(/7X(c9i*7=+I#/XO/_3WuYah$\g(3907a8q+y
36)(7\) u%280S3p9-u/1#T8B33t9#m-'xLY=3X>(12>9QP:o6*77K/-[xuho'((6
e3s$# 9xu+$#<2mSXp/9[W2<0/:0ZWi)%23_3pH:F:$\Z(39m3y=#9%) 2/425-/Z
F:=Uw+*7+97\) : 2<9z$:]Oux8<k:DAJ$,QP3e/ep7Kk-[xo:_3wUkAH$9CD;)10
'83l:=2')=# 9xV)$+ZK'9$#/-')<9c*57%(3[BS;x#9<) 2>8qp:O>*77Z#ZYa:L
)'3:= 280SiW9-u/1#T8B33t9#m-'xLY=3X>(12>9QP:o6*77K/-[xuho'((6
e3)7\) :*280s4(9-U/1#t8b33T9#M-'Xly=3x>(12>9qp:O6*77k/-[XUHO'((6
e307\) I1280s4m9-U/1#t8b33T9#M-'Xly=3x>(12>9qp:O6*77k/-[XUHO'((6
e37<# 9xu)$#<2P2Xp/9[W2<0/:0ZWi)%23_3pH:F:$\Z(39m3y=#9%) 2/425-/Z
F:Brw+*7y57\) uh2<9z$:]Oux8<k:DAJ$,QP3e/ep7Kk-[xo:_3wUkAH$9CD;)10
'8-h:=2'9<# 9xJj$+ZK'9$#/-')<9c*57%(3[BS;x#9<) 2>8qp:O>*77Z#ZYa:L
)'uE9[J$#<2)ixP/9[w2<0/:0zwI)%23_3Ph:f:$\z(39M3Y=#9%) 2/425-/z
-\#*50Xz
.ends gt3_bBiasMasterRCal10X
