** End of subcircuit definition.
************************************
** Library name: rnr_gt3
** Cell name: gt3_bBiasMasterRCal2p25X
** View name: schematic
************************************
.subckt gt3_bBiasMasterRCal2p25X n1 n2 vssA
.prot FREELIB
7Y 280spw9[(J=3W6b0;$.PK[Y2U$UqU:rahP!yI(9mUy=#9;) 2>Sqp:b8!:_JQ
7Y%280sp39[j$+ZK'9$#/-')<9c*57%(3/Bv)x#9<) 2>8qp:O>*77Z#ZYa:L
)'3:= 280SPW9-u/1#T8B33t9#m-'xLY=jXE:12>9QP:o6*77K/-[xuho'((6
BM8.'v 6
.ends gt3_bBiasMasterRCal2p25X
