** End of subcircuit definition.
************************************
** Library name: rnr_gt3
** Cell name: gt3_bBiasMasterR
** View name: schematic
************************************
.subckt gt3_bBiasMasterR n1 n2 vssA
.prot FREELIB
7Yu28b# 39-U/1#t8b33T9#M-'Xly=VxPI12>9qp:O6*77k/-[XUHO'((6
BM8.'v 6
.ends gt3_bBiasMasterR
