** End of subcircuit definition.
************************************
** Library name: rnr_gt3
** Cell name: gt3_sysclk_bias
** View name: schematic
************************************
.subckt gt3_sysclk_bias AVCC_PLL AVSS_PLL ibias pdn_b vbiasn
.prot FREELIB
7O[O)7cf!502H-c$<9=p/9/tFrX;<9ZS2ri28\TKur-'$Uq3H/Xlyx+l:Oe*s7\O-'XMV_.p:00*7[
49+OJ2<-c$<=XzT%VI:5-U/6*=F9=p/9/tFrXz>MZ9F\72,_;x(9i*P!3U:0P*P7$K-/Z
FhJrw2%[gx7\) :/2G+G/Q]IL$19k<c$L374#Qw[P.\%y 3EF$u\((e%:p7% -/bH5X8
_+J8ZA0'k-[x46_jXC/123.Q+h[%:$.:#+N23/_3q
7O[O(7cf!5026Y\S[9-/H1Z :5-U/6*=F9[Ow9k=6xX4yj++:ra:ZbVW+3aj$rD(*[XM/_3W<Wg/y=#K!n-'y=8
oU]M+$+0#'B[280Si>98/h1zw'\>a..%=:]MD/\%y 9C*S!jwf)1-5H# 7)%2\yQ6394uY=8
Xr=$3W%8
.ends gt3_sysclk_bias
