** End of subcircuit definition.
************************************
** Library name: rnr_gt3
** Cell name: gt3_bBiasMasterRCal2p5X
** View name: schematic
************************************
.subckt gt3_bBiasMasterRCal2p5X n1 n2 vssA
.prot FREELIB
7Yu28=# 9x j$+ZK'9$#/-')<9c*57%(3[BS;x#9<) 2>8qp:O>*77Z#ZYa:L
)'i:=2'7B# 9X +$+zk'9$#/-')<9C*57%(3[bs;X#9<) 2>8QP:o>*77z#zyA:l
)'4:=2'7<# C9-u/1#T8B33t9#m-'xLY=3X>(12>9QP:o6*77K/-[xuho'((6
BM8.'v 6
.ends gt3_bBiasMasterRCal2p5X
