** End of subcircuit definition.
************************************
** Library name: rnr_gtx_ade
** Cell name: gt3_ickbuf_term
** View name: schematic
************************************
.subckt gt3_ickbuf_term AVCC_PLL AVSS_PLL inm inp outm outp pwrdn_b
+clk_in_dc_b
.prot FREELIB
%/X78.#$6b0G6,%W%)/Y;d8
/398Z67[y%kdi3,#/-u%:zXj[Y
k%2h#Kw'\>a..%=:kA)0X++(Jz
aS7C U9=P/9/TfRxaYHv+t6
e7s7\) I%280sIm9=p[S/tFrX;<9ZS2ri2'4/#+\DO3+sO73X48_Jx>S123#q+H[%:L
T\[!=G(:9QP:D$*p!vL(9IiYX+PC/xi 4\D9y0*7[
4#(9=p[S/tFrX;<9ZS2ri280sIm9[(J<]WZxuG'8*50n7(:\Z$ 5>Oa0\Q
7W%26U';+C32[,wS!=D [60W+*7+57[Y%KDI3,#$6b0G6,%W7WDzg#DUqOipJ)4Oy
8CZYX+P)/xL8_jX3'128DC z*6uY=#m2)1-7$jwf]A:z=-+:]_78o<5<) 0
'8JW007I$4\t:5-U/6*=F9$#/-')<9c*sx#=-:B+Px#9<) 2>8qp:O>*77Z#ZYa:L
)'3:w[o$#<2p(x;<9zs2RI262zF;*02,_;+:RAsz<j+:o0*77K5-[xo[_3w<wG3YX8
o;[xD\%Kw!=M2G+zkQ]IL$.pk[y2u$uQ3(9I*)!r+(9MuY=#9;) 2>sQP:B8!:_jq
7Y%280s4#98z67[Y<bDI3,#t8b33T9#M-U123_VxP/12>9qp:O6*77k/-[XUHO'((6
PE$4\9:5-A[6*=F9$ HM#$;*=*7!Jp)U (==JW2.a:ZxJ+m2H2>_3Q
o[12g+ZKq]il$4\9:=P7w7[595a+Zjyj(:257=#t,)1-PxJp#I1S$\qpy
% e$m$229=P[s/TfRxiv4tw'y2;YB+,($257B#T,) -7Jv)*/v2>_3q
o[V280s4#9=p[S/tFrXIV4TW'Y2;yb+,($257b#t,) -7jV)*/V2>_3Q
o[%2g+ZKq]il$#<2P(XzV4TW'Y2;yb+,($257b#t,) -7jV)*/V2>_3Q
o[u2g+ZKq]il$19K<C$l37\;!MX;:0[(cEF:(0.pc9$<y=+pm:25P<#9-[Z
 7H#$6k>g6,%w'\>a..%=:]p7W7[595AJzejJ9! J$.l(3e ))0.+p9M*7[
Dp)9.MJ\#$6K>G6,%W2%8d$1')')%-;xu)*[%26*qpH[uST3J4:OahL
y3J:5-u/6*=f9.mj\# Ow.2G8<$-'bepi<63'xif_3X3u/(=XrwU) 0
V$##+]X;<SgS2ri26Ycv:56(g_3x([J)70.p(9$<yx++(/uY*7k(36
P+$19K<C$l37c 29[ HM#$;*=*0!;lw//(==3W2.a:ZxJ+3(V:)7k(36
Ph*7[Y<bDI3,#vRx$28Ycv:56(g_-x#/*(==-W2.ahZ=;I9!1+$\qpy
e4Z68t2Y
.ends gt3_ickbuf_term
