** End of subcircuit definition.
************************************
** Library name: rnr_gt3
** Cell name: gt3_bBiasSelect
** View name: schematic
************************************
.subckt gt3_bBiasSelect half0 half0B half1 half1B nom nomB sel<1> sel<0>
+vddA vssA
.prot FREELIB
o'Xp/9[W<*iCPp# oW.2g8<$-UBYT333:]#*5!V)*/J2>_3Q
oUXp/9[W<*iC7p# oW.2g8<$-UBYT333:]#*5!V)*/J2>_3Q
7W Y$9<=_[)2/0%+[9[d>79;o5Xp/9[W7WDzg#DUqOipJ)4O:d[*77% -/Bh5x8
_+J8ZA0'k-[x46_3wf]A:z=-+:]_78o<5<) 0
'434:b2l7-#K9r1/$/[=T/XpVY[W6b0;$)cS+5[ 56k=6xef'7X -[Xl8_Jx3'10
o#:#+n23/_3Wi]ah$,*((E jP7*[!=g(:9qpy
38H)7z)fH q$9<=_/)2d1%[3-xPvy[w6B0;$)Cs+5[ 56K=6XEF'7x -[xL8_jX3'10
o#:#+n23/_3Wi]ah$,*((E jP7*[!=g(:9qpy
38HS7z)fH q$9<=3-xPvy[w6B0;$)Cs!=-g>,9273E2,#Q+hi1:$,\((e Jp[
a TW[!T8Z(39cIy=#=2)1-7bJW2j8za0'K-[Z
Fh=-w<*IcpP#k9R1/$+d;'9-u/1#o!c8Z<6K=6XEF'7x -/b+pX#=+)1-7Bjq
$=_78O<5<) 2,.qp:r$*P!3U(9$\H#2);bahL
)CP39[D>7\VU-xPvy[w6B0;$)Cs!=-g>,9273E2,#Q+hi1:$,\((e Jp7\[!=G(:9QPY
8CiY=#=2)1-7Bjw2J8ZA0'k-[z
Fh=jwA5I\p7h$fJ1/$+d;'9-u/1#o!c8Z<6K=6XEF'7x -/b+pX#=+)1-7Bjq
$=_78O<5<) 2,.qp:r$*P!3U(9$\H#2);bahL
)C,:F=L =0wA5I\779;O5xP/9[w7wd78+/9f\7F')#m+)1-0Xjwf=A:z=-+Y
8[\h#2);BAH$u*(39IiYX+PC/xi 4\D9y0*7[
+!+]6dJ[
.ends gt3_bBiasSelect
