** End of subcircuit definition.
************************************
** Library name: rnr_gt3
** Cell name: gt3_xrProgTermSATACMGen
** View name: schematic
************************************
.subckt gt3_xrProgTermSATACMGen AVCC AVSS pwrdnB vcm
.prot FREELIB
7O12g+ZK:\>O$19K<9=p/9# uM0'w)-4:dajZx#=-'B:$#4(P//2\Yq6394Uy=8
o![xi,8d [9$ $19/%9=P/9#o!c8Z<6K=6XEF'7x -/b+pX#=+)1-7Bjw+J8ZA0'k-'z
$,.QP:R$*p!3u(9$\h#2);BAJl
)KP:=2'SJ#TO9=P[s#$6k>26\tkUR-'$uQuhixLYX+PC9[FY>#!O)\H$Rz(36
e3P7\) Uu2<SkW'\0U$.PK[Y2U$UqU:rahs!5I(9mUy=#9;) 2>Sqp:b8!:_JQ
7Y 2<SkW+*7);7[Y<bXIe9059bX4yb#=-[u-9hJWubah$\'(39mAy=#K!n6*P[
45c9[(Jj]W'\0U$19K<9$#/-')<9c*57%(3UBY)x#9<) 2>8qp:O>*77Z#ZYa:L
yjw'\0u$.x5O=328yCV:56(G_;X)*\HS7*8-'bst3jH:oAHl
!$ 2y.'l
.ends gt3_xrProgTermSATACMGen
