** End of subcircuit definition.
************************************
** Library name: rnr_gt3
** Cell name: gt3_bBiasCell
** View name: schematic
************************************
.subckt gt3_bBiasCell biasinV iout sel<1> sel<0> vddA vssA
.prot FREELIB
7W 2D1%[(9;;3dJf:f=l =#*'r_hX7\vu9[d>-#K9rRh%7Z)Fh1Q$+D;'9-U/18
_zXUgx-C$<B2LtsSq
oUXzT%J4e9- V1#toW.2g8<$-UBYT333:]#*5!V)*/J2>_3Q
o:XzT%yW6%P;$.D#09=3T1q3H2257j#t,)%-)0.+)9m*7[
D4:=2')79;o5XIV4TW'Y2;yj+h9! )$.L(cE/(=x5Wu) 0
'\*9(98d\%# 9x/2<YD$:\P g7*90bml<%#M-'Xlyx+l:=e**7$;-! 2\9qpy
3Mi>J##007280SL:\p G79;O5xi>mz9f\72,_-wf)1-*7\o-sxmv_.P:00*7[
492O*280s+PSXzw\#Yo%=2<YD$:]md/\%Y 9c*P!yWF)1-7b#!o)12\9q+y
3Mi>H# 9Xh2d1%[(9- v1#yO%=26\tkUR-'$uQ+hsxLYX+PC94 YX#!<)10
'\*9c9[(Jh#*'r_hX70#'b8z<79;o5XI>MZ9F\72,_Jxe9i*P!3U:=e*57$;-! 2\9qpy
3Mi><# 9Xh2d1%[(-x/h1z#+\xPvy[w2o.u>,92:DA:z>#=-/bH57\o-'xmv_.P:00*7[
492O 280sI:f=l =#Yo%=2<YD$:]md/\%Y 9c*P!yWF)1-7b#!o)12\9q+y
3Mi>># 9X1+*7\VU-x/h1z#+\xPvy[w2o.u>,92:DA:z>#=-/bH57\o-:xmv_.P:00*7[
492OJ2HM$2:=2'P<yW6%P;$+D;'9$Ow9k=6xX4yb#=-/Bv$#4(32XMV_.p:00*7[
+!+]6dJ[
.ends gt3_bBiasCell
