** End of subcircuit definition.
************************************
** Library name: rnr_gt3
** Cell name: gt3_bBiasMasterRCal5X
** View name: schematic
************************************
.subckt gt3_bBiasMasterRCal5X n1 n2 vssA
.prot FREELIB
7Yu28=# 9x E$+ZK'9$#/-')<9c*57%(3[BS;x#9<) 2>8qp:O>*77Z#ZYa:L
)'i:=2'7e# 9X%J$+zk'9$#/-')<9C*57%(3[bs;X#9<) 2>8QP:o>*77z#zyA:l
)'4:=2'5B# 9X%+$+zk'9$#/-')<9C*57%(3[bs;X#9<) 2>8QP:o>*77z#zyA:l
)'Pp9[J$#<2CsxP/9[w2<0/:0zwI)%23_3Ph:f:$\z(39M3Y=#9%) 2/425-/z
F:=Uw+*7J*7\) u 2<9z$:]Oux8<k:DAJ$,QP3e/ep7Kk-[xo:_3wUkAH$9CD;)10
'83l:=2's=# 9x%+$+ZK'9$#/-')<9c*57%(3[BS;x#9<) 2>8qp:O>*77Z#ZYa:L
!$ 2y.'l
.ends gt3_bBiasMasterRCal5X
