** End of subcircuit definition.
************************************
** Library name: rnr_gt3
** Cell name: gt3_ickbuf_dbuf
** View name: schematic
************************************
.subckt gt3_ickbuf_dbuf AVCC AVSS inm inp outm outp vbiasn
.prot FREELIB
7O[O(7[Y<bX;<9ZW'\0U$19K<9[Ow9k=6xX4yj++:ra:Z># 7)/2\Yq6394Uy=8
oU=MV$19k<9=P/9#$6B02G+zk:=MD/\%y 9C*S!jwf)1-*7\o-:xmv_.P:00*7[
49+O :$19K<9=p/9# %Mm2g+ZK:=md/\%Y 9c*s!JWF)1-7b#97)%28)qU:0P*==#!<) 0
'\\9#9=p/9#$6b028ST9:5-U/7\90bml<%#M-UB:$,q+H[%2>)qU:=e*57$;-! 2\9qpy
3MZ>B# %mM2<-C$<=x;<9zw'\0u$#KV<oIPj7x(Me123_jXE9MFYH# 7)%:$Rd(*[xm/_3q
7O[O77T! ]X78\# %Mm2g+ZK:=md/\%Y 9c*s!JWF)1-7b#97)/28)qp(94 yx#!<) 2/42f-[XUHO92-[Z
F>#K+:m4'>7C 29[aW\#$6B028\tkUR-'$uQ3h/xLYX+PC9MFYH# 7) :$Rd((94uY=#k!N3*77z#z\7*7[
45m9=p[S#$6K>2g+ZK:]oUX8<K:daj$,qjH'*:$\Z(39m3y=#9%) 2/425-/Z
F:H#$6k>2G+G/:5-u/7*:<-6(/7x(C9I*(!-J(9MuY=#9;) 2>sQP:B8!:_jq
7Y%2g+g/:M4'67[Y<bXIe9059bX4yb#=-$Bj(x#9<)u2>8qp:O>*77Z#ZYa:L
)'+:5-a[7t! ox;<9zw2<0/:0zwI)%23_UXC$12>9Q3:o6*77K/-[xuho'((6
BM8.'v 6
.ends gt3_ickbuf_dbuf
