** End of subcircuit definition.
************************************
** Library name: rnr_gt3
** Cell name: gt3_bBiasMasterRCal40X
** View name: schematic
************************************
.subckt gt3_bBiasMasterRCal40X n1 n2 vssA
.prot FREELIB
7Y YP7\) [/j$#<23[*2<9Z$:]oUX8<K:daj$,qp3E/EP7kK-[XO:_3WuKah$9cd;)10
'83h39[(J=-3:=2'7b5W6b0;$.PK[Y2U$UqU:rah7!V,(9mUy=#9;) 2>Sqp:b8!:_JQ
7Y Y57\) [ t$#<23'u2<9Z$:]oUX8<K:daj$,qp3E/EP7kK-[XO:_3WuKah$9cd;)10
'83hm9[(J=-,:=2'7b5W6b0;$.PK[Y2U$UqU:rah7!V,(9mUy=#9;) 2>Sqp:b8!:_JQ
7Y Y)7\) [uj$#<23'F2<9Z$:]oUX8<K:daj$,qp3E/EP7kK-[XO:_3WuKah$9cd;)10
'83hP9[h$#<23U%2<9Z$:]oUX8<K:daj$,qp3E/EP7kK-[XO:_3WuKah$9cd;)10
'83h)9[(J=;l:=2'7jRW6b0;$.PK[Y2U$UqU:rah7!V,(9mUy=#9;) 2>Sqp:b8!:_JQ
7Y Y(7\) [/h$#<23UH2<9Z$:]oUX8<K:daj$,qp3E/EP7kK-[XO:_3WuKah$9cd;)10
'83he9[(J=VU:=2'7h3W6b0;$.PK[Y2U$UqU:rah7!V,(9mUy=#9;) 2>Sqp:b8!:_JQ
7Y Y;7\) [JE$#<23:/2<9Z$:]oUX8<K:daj$,qp3E/EP7kK-[XO:_3WuKah$9cd;)10
'83j(9[(J=VI:=2'7huW6b0;$.PK[Y2U$UqU:rah7!V,(9mUy=#9;) 2>Sqp:b8!:_JQ
7Y t77\) [/t$#<23UV2<9Z$:]oUX8<K:daj$,qp3E/EP7kK-[XO:_3WuKah$9cd;)10
'83jc9[(J=ul:=2'7<;W6b0;$.PK[Y2U$UqU:rah7!V,(9mUy=#9;) 2>Sqp:b8!:_JQ
7Y ts7\) [VE$#<232%2<9Z$:]oUX8<K:daj$,qp3E/EP7kK-[XO:_3WuKah$9cd;)10
'83j>9[(J=R3:=2'7<]W6b0;$.PK[Y2U$UqU:rah7!V,(9mUy=#9;) 2>Sqp:b8!:_JQ
7Y t07\) [J+$#<232%2<9Z$:]oUX8<K:daj$,qp3E/EP7kK-[XO:_3WuKah$9cd;)10
'83j)9[(J=5l:=2'7$RW6b0;$.PK[Y2U$UqU:rah7!V,(9mUy=#9;) 2>Sqp:b8!:_JQ
7Y t(7\) [JE$#<232H2<9Z$:]oUX8<K:daj$,qp3E/EP7kK-[XO:_3WuKah$9cd;)10
'83je9[(J=uI:=2'7I3W6b0;$.PK[Y2U$UqU:rah7!V,(9mUy=#9;) 2>Sqp:b8!:_JQ
7Y t;7\) [*t$#<23$/2<9Z$:]oUX8<K:daj$,qp3E/EP7kK-[XO:_3WuKah$9cd;)10
'83l(9[(J=ul:=2'7IuW6b0;$.PK[Y2U$UqU:rah7!V,(9mUy=#9;) 2>Sqp:b8!:_JQ
7Y v77\) [FY$#<23S12<9Z$:]oUX8<K:daj$,qp3E/EP7kK-[XO:_3WuKah$9cd;)10
'83lc9[(J=y+:=2'7>;W6b0;$.PK[Y2U$UqU:rah7!V,(9mUy=#9;) 2>Sqp:b8!:_JQ
7Y vs7\) [H)$#<23$ 2<9Z$:]oUX8<K:daj$,qp3E/EP7kK-[XO:_3WuKah$9cd;)10
'83l>9[(J=]+:=2'7>]W6b0;$.PK[Y2U$UqU:rah7!V,(9mUy=#9;) 2>Sqp:b8!:_JQ
7Y v07\) [F)$#<23(12<9Z$:]oUX8<K:daj$,qp3E/EP7kK-[XO:_3WuKah$9cd;)10
'83l)9[(J=]h:=2'7E;W6b0;$.PK[Y2U$UqU:rah7!V,(9mUy=#9;) 2>Sqp:b8!:_JQ
7Y v(7\) '%)$#<2c/%2<9Z$:]oUX8<K:daj$,qp3E/EP7kK-[XO:_3WuKah$9cd;)10
'83le9[(JbJU:=2'5xRW6b0;$.PK[Y2U$UqU:rah7!V,(9mUy=#9;) 2>Sqp:b8!:_JQ
7Y v;7\) '1+$#<23SF2<9Z$:]oUX8<K:daj$,qp3E/EP7kK-[XO:_3WuKah$9cd;)10
'83,(9[(JbJl:=2'5=3W6b0;$.PK[Y2U$UqU:rah7!V,(9mUy=#9;) 2>Sqp:b8!:_JQ
7Y E77\) ' h$#<2c[/2<9Z$:]oUX8<K:daj$,qp3E/EP7kK-[XO:_3WuKah$9cd;)10
'83,c9[(Jb3I:=2'5=]W6b0;$.PK[Y2U$UqU:rah7!V,(9mUy=#9;) 2>Sqp:b8!:_JQ
7Y Es7\) ' t$#<2c'12<9Z$:]oUX8<K:daj$,qp3E/EP7kK-[XO:_3WuKah$9cd;)10
'83,>9[(Jb-+:=2'5=]W6b0;$.PK[Y2U$UqU:rah7!V,(9mUy=#9;) 2>Sqp:b8!:_JQ
7Y E07\) '%)$#<2c[*2<9Z$:]oUX8<K:daj$,qp3E/EP7kK-[XO:_3WuKah$9cd;)10
'83,)9[(Jb-h:=2'5bRW6b0;$.PK[Y2U$UqU:rah7!V,(9mUy=#9;) 2>Sqp:b8!:_JQ
7Y E(7\) '%E$#<2c'J2<9Z$:]oUX8<K:daj$,qp3E/EP7kK-[XO:_3WuKah$9cd;)10
'83,e9[(JbJl:=2'5b]W6b0;$.PK[Y2U$UqU:rah7!V,(9mUy=#9;) 2>Sqp:b8!:_JQ
7Y E;7\) 'VE$#<2cUH2<9Z$:]oUX8<K:daj$,qp3E/EP7kK-[XO:_3WuKah$9cd;)10
'8-+(9[(Jb;l:=2'5h3W6b0;$.PK[Y2U$UqU:rah7!V,(9mUy=#9;) 2>Sqp:b8!:_JQ
7Y%:77\) '/h$#<2c'V2<9Z$:]oUX8<K:daj$,qp3E/EP7kK-[XO:_3WuKah$9cd;)10
'8-+c9[j$#<2c:*2<9Z$:]oUX8<K:daj$,qp3E/EP7kK-[XO:_3WuKah$9cd;)10
'8-+m9[(JbVj:=2'5<JW6b0;$.PK[Y2U$UqU:rah7!V,(9mUy=#9;) 2>Sqp:b8!:_JQ
7Y%:)7\) 'V:$#<2cIV2<9Z$:]oUX8<K:daj$,qp3E/EP7kK-[XO:_3WuKah$9cd;)10
'8-+P9[(JbR3:=2'5<5W6b0;$.PK[Y2U$UqU:rah7!V,(9mUy=#9;) 2>Sqp:b8!:_JQ
7Y%:97\) 'VY$#<2cIV2<9Z$:]oUX8<K:daj$,qp3E/EP7kK-[XO:_3WuKah$9cd;)10
'8-+w9[(JbR,:=2'5<;W6b0;$.PK[Y2U$UqU:rah7!V,(9mUy=#9;) 2>Sqp:b8!:_JQ
H0[I:MsQ
.ends gt3_bBiasMasterRCal40X
