** End of subcircuit definition.
************************************
** Library name: rnr_gt3
** Cell name: gt3_bBiasMasterRCal
** View name: schematic
************************************
.subckt gt3_bBiasMasterRCal n1 rCal<4> rCal<3> rCal<2> rCal<1> rCal<0> vddA
+vssA
.prot FREELIB
7W E$#3W+*7:5h#Y<b=2a%;S[-8;/\[K *63[1%I(3Z
Fh=Yw+[xZt%juW9-u/1#D ud/x4[kU50't8'/'R%:'[
4#3$Xz77\) /Vt$+ZK'9g's60f!50Og9s);Y>;3=JOy
38H97\P:=2'pH]w6B0;$oS3Q-37G9K$<X23:s[=p3z
Fh=rw+[xZt%jH39-u/1#D ud/x4[kU50't8'/'R%i0)8
o![/28=#y<B=2<9z$:N7).-0#'BM;/%<5;k=L5.-476
eO8\-W+*7:0I#5%5i/\dmUV9-U/1#Y<b=28\TKur-'$UqUHIXlyx+pc9[fyh#!o)\h$rZ(36
eO8\3W+*7:5I#5%5i/\dmpV9-U/1#Y<b=28\TKur-'$UqUHIXlyx+pc9[fyb#!o)\h$rZ(36
eO8\JW+*7:5h#5%5i/\dm+V9-U/1#Y<b=28\TKur-'$UqUHIXlyx+pc94 yx#!<)10
'\\9m9[(JxV,:Y>;3-$[_U)2<9Z$:\0Ug7\90bml<%#M-'B+$,q+H[%28)ql:0P*==#!<) 0
'\\9>9[(Jx5p:Y>;3-$[_:)2<9Z$:\0Ug7\90bml<%#M-'B+$,q+H[%28)qp)94 y33WRbahL
)Cu(H/q$#<2(u1cpP#5%5I/\DMiv9- v1#y<B=2'4/#+\do3+So73x48_jXp/10
o,\((E jP7\[!=g(:9qp:d$*77%t-/Bh5x#tTW[!T8Z(36
e75xm3V9[(Jx;+_[)2:S[=[0_Csp#Yo%=2<9Z$:38GH#9Sur-'')4Wi=a:Z<J+y
8IZYX+PC/xZ 4\D9y0*77xT-[xL6_jX3'126DC z*6uY=8
o!'1c5P# 9X1)pw-e:y>;3-$[_')2<yd$:\0uG74#Qw[P.\%y 3EF$u\((ev:p[
a=+)1-7bJW+j8za0'K-[X46_3WF]a:Z=-+:]_78O<5<) 0
'4-+_[)280s+m/R)%7'/'r3M W3E:\P g79K<5XfH6c 6Cml<%4O79czyx+4(/Z
$3#Q+h[%:$#:#+N23/_3wI]AH$,*((e Jp7*[!=G(:9QPY
38Jpwje:=2'pJj1>+x3[1%FrJr:%79;O5xP/9[w7wd78+/9f\7F')#m+)1-0Xjq
$r[*P!3U(9[\H#2);bah$U*(39iIyx+pc/XI 4\d9Y0*7[
4#3'RS%7'/'rRS%7\) /u:#x1W6%P;$+ZK'9e7.4\YqOipJ)4O:d[*P!R+(9izyx+pc/Z
$8DC z*6uY=#m2) 23.Q+h[%:$.:#+N23/_3q
7W j#j1W;K=l#j1W+*7:sxmpV9- V1#Y<b=2'4/#+\DO3+sO73X48_JxP/123#q+H[%:L
T\[!=G(:9QP:D$*77%T-/bH5X#Ttw[!t8z(36
e77bmUV96Ag,mUV9[(Jx;+_')2<YD$:\0Ug74#qW[p.\%Y 3ef$U\((EV:P7% -/Bh5x8
_+J8ZA0'k-[x46_3wf]A:z=-+:]_78o<5<) 0
'43U_[)2:S[=_[)280s+m/R)%79;o5Xp/9[W7WD78+/9F\7f')#M+)1-0xJWF=a:Z=-+y
8[\h#2);BAH$u*(39IiYX+PC/xi 4\D9y0*7[
4#3'R:%7'/'rR:%7\) /u:#h1W6%P;$+ZK'9e7.4\YqOipJ)4O:d[*P!R+(9izyx+pc/Z
$8DC z*6uY=#m2) 23.Q+h[%:$.:#+N23/_3q
H0[I:MsQ
.ends gt3_bBiasMasterRCal
