** End of subcircuit definition.
************************************
** Library name: rnr_gt3
** Cell name: gt3_bBiasGenAmp_v2
** View name: schematic
************************************
.subckt gt3_bBiasGenAmp_v2 biasN inN inP outB outR pwrdnB vddA vssA
.prot FREELIB
o:Xp/9[W!=$28Ycv:56(g_;x)*\hs7*8-'BST3Jh:OahL
yYw007/$+d;'9$ hm#$;*=*S!5)*[U26*Quh:25p$#9-[z
 (79k<5x/h1z :=p7W7[595A)z$<63uxif_-X>*\:97K(36
PY$+ZK'98z87\;!MX;:0[(mEJ(==;W2.ajZh<6(2XOy=8
oU]My$#<2E9[(j># 9X1T)79;O5xi>mz9f\72,_-Xp9I*p!Yw+3AH57$;-/xm/_3q
7O$OP7T! YXd\%0W6%P;$+D;'9$Ow9k=6xX4yb#=-/Bv$#4():XMV_JWRbahL
)KTU[xD\%0w2D6 8-#yO%=2<yd$:]MD/\%y 9C*57%((e J$#4(C94 Y33wrBAHl
)KTU:xZt%Yw2D6 8-#yO%=2<yd$:]MD/\%y 9C*57%((e J$#4(C94 Y33wrBAHl
)KTU'xZt%jJ(9[(j>#yO%=2<yd$:]MD/\%y 9C*5!rwf)1-*7\o-[%2\yQ+:00*7[
492O*2wrsf:=2'*7\) /*:$+D;'9$Ow9k=6xX4yb+4:ra:Z># 7) j$rD((94Uy=8
oU]M)$#<2($/280SL:\p G79;O5xi>mz9f\72,_-Xp9I*p!Yw+3AH57$;-/xm/_3q
7O[OP7\) $X/H1Z :\0Ug79K<5Xz>MZ9F\72,_-xP9i*P!yW+3a)57$;-! 2\9qpy
3MZ>H# 9X*2<9z$:\0uG79k<5xZ>mz9f\72,_-Xp9I*p!Yw+3As$Rd(*[xm/_3q
7O[Os7T! -X78## 9x*2<9Z$:=md/\%Y 9c*5!RWF)1-*7\O-'/2\Yq6394Uy=8
oU=MJ$#<2E98Z67\) $xP/9[w+o.u>,92:DAJz<#=-/bV$#4(C:xmv_.P:00*7[
+!+]6dJ[
.ends gt3_bBiasGenAmp_v2
