** End of subcircuit definition.
************************************
** Library name: rnr_gt3
** Cell name: gt3_bBiasGenAmpBias
** View name: schematic
************************************
.subckt gt3_bBiasGenAmpBias biasN pwrdn vddA vssA
.prot FREELIB
7O[OP70#'b[2X4[K+9-U/1#Y<b=28\TKur-'$UqUHIXlyx+l:=e*5h#!o)\h$rZ(36
eO8\3W[W=U87*M;%[2<9Z$:\0Ug7\90bml<%#M-'Xlyx+pc9[fyb#!o)\h$rZ(36
eO8\-W6b0;$-c$<=Xp/9[W6b0;$#kv<OipJ7X(cEV23_Jxe9[fy=Jl:0P*==#!<) 0
'8]W+*7S*7\) I/2<9Z$:]oUX8<K:daj$,qp(E vP7kK-[XO:_3WuKah$9cd;)10
'83+:=2'0=# 9xJE$+ZK'9$#/-')<9c*57%(3/Bh*x#9<) 2>8qp:O>*77Z#ZYa:L
)'P39[(j<vw+*7+779k<5xiE9059Bx4YB#=-[1-7>jwUBAH$\'(39MaY=#k!N6*p[
45e9[(J<uW+*7S*79K<5XIe9059bX4yb#=-[1-7>JWubah$\'(39mAy=#K!n6*P[
453'XzT%5+:=2'9j#Y<b=262Zf;*02,_-WF) :Z=y+:O0*77k5-[XO[_3W<Wg3yx8
o;[U280SHM937G9\w6B0;$.pk[y2u$uQu:RAHp!3L(9MuY=#9;) 2>sQP:B8!:_jq
7Y S$#<2)2XzT%5+:\0Ug7*:<-6(/7X(c9i*7x+pe/XO/_3WuYah$\g(3907a8q+y
36H07\) 2f280SH)9-u/1#T8B33t9#m-'xLY=jX3s12>9QP:o6*77K/-[xuho'((6
eO6\JW+*7+(7*M;%[2<YD$:\P g7*90bml<%#M-'B+$,q+H[%28)qI:0P*==#!<) 0
Zr\t;M70
.ends gt3_bBiasGenAmpBias
