** End of subcircuit definition.
************************************
** Library name: rnr_gt3
** Cell name: gt3_bBiasMaster
** View name: schematic
************************************
.subckt gt3_bBiasMaster biasR biasRCal pwrdn rCal<4> rCal<3> rCal<2>
+rCal<1> rCal<0> vbgRef vddA vssA
.prot FREELIB
7W6(/S[=:Y6( S[=:Y>;3WVE:Y>;3W;E:Y>;3W-E:Y>;3W3E:Y>;3WJE:\P g79K<5Z
$A%;s[-8;/\[k *63[1%q
7W6(/dcO9%X3:0:W6b0;$+ZK'9g's60f!50Og9s);YZ
Fx4[k:-8;/##TIypZxR:w6%p;$+zk'9G'S60F!50!t#[92-8;/[
4$u]62X4[K+9-/a8<[:Y6( 70#'b62:8<[:]c3V#0W6%P;$+ZK'6
:!Jj/f[W=Ua0\$u]Dp5[
4$u]6Ag,#f!50z$+0d;*_2:8<[%5i2X4[K;K=l$8')TK=l$.X5o=32<YD$:\0Ug[
ad UD/X4[KZ*[;>./Yc6
eO6\-W6%P;$-c$<Y>;379;o5XpVY[W2O.U>,92:daj$,q+HSXz'_3U(/XMV_.p:00*7[
492O 2<YD$:-8;/8#Yo%=2<YD$:]md/\%Y 9c*57%((EH28)qpc/12\Yq6394Uy=8
o![126u';+9$4:y\F:\p G79k<5xFh6C 6cML<%4o79CZY=#=+)1-7Bjw+J8ZA0'k-[z
$,.Qu:R$*p!3u(9$\h#2);BAHl
)CP39$4:y\F:]C3v#0!t9- v1#y<B=2'4/#+\do3+So73x48_3wf=A:z=-+Y
8[\h#2);BAH$u*(C9IiYX+PC/xi 4\D9y0*7[
+!+]6dJ[
.ends gt3_bBiasMaster
