** End of subcircuit definition.
************************************
** Library name: rnr_gt3
** Cell name: gt3_bBiasMasterRCal20X
** View name: schematic
************************************
.subckt gt3_bBiasMasterRCal20X n1 n2 vssA
.prot FREELIB
7Y +$#<2eIXzT%5+:\0Ug7*:<-6(/7X(c9i*7=+I#/XO/_3WuYah$\g(3907a8q+y
36H*7\) 2j280SH#9-u/1#T8B33t9#m-'xLY=3X>(12>9QP:o6*77K/-[xuho'((6
e37I# 9xJ:$#<2)2Xp/9[W2<0/:0ZWi)%23_3pH:F:$\Z(39m3y=#9%) 2/425-/Z
F:<# 9X*J$#<2)(xP/9[w2<0/:0zwI)%23_3Ph:f:$\z(39M3Y=#9%) 2/425-/z
F:H# 9X*+$#<2W'xP/9[w2<0/:0zwI)%23_3Ph:f:$\z(39M3Y=#9%) 2/425-/z
F:J# 39[(jirw6B0;$.pk[y2u$uQu:RAH7!v,(9MuY=#9;) 2>sQP:B8!:_jq
7YuY$#<2e[XzT%ul:\0Ug7*:<-6(/7X(c9i*7=+I#/XO/_3WuYah$\g(3907a8q+y
36)(7\) s/280SL39-u/1#T8B33t9#m-'xLY=3X>(12>9QP:o6*77K/-[xuho'((6
e3sE# 9xH+$#<2e:Xp/9[W2<0/:0ZWi)%23_3pH:F:$\Z(39m3y=#9%) 2/425-/Z
F:BYw+*7H7B# 9XhT$+zk'9$#/-')<9C*57%(3[bs;X#9<) 2>8QP:o>*77z#zyA:l
)'u)9[(j>Uw+*7ep79k<5xiE9059Bx4YB#=-[ -)ejwUBAH$\'(39MaY=#k!N6*p[
45cIXzT%]+:=2'(>#Y<b=262Zf;*02,_-WF) hZh]+:O0*77k5-[XO[_3W<Wg3yx8
o;: 280SPC[xZt%]H:\0uG7*:<-6(/7x(C9I*7=+i#/xo/_3wUyAH$\G(3907A8Q+Y
36s(7\) [1J$#<23/v2<9z$:]Oux8<k:DAJ$,QP3e/ep7Kk-[xo:_3wUkAH$9CD;)10
'8V,:=2';$# 9x :579K<5XIe9059bX4yb#=-[ -)EJWubah$\'(39mAy=#K!n6*P[
45P'XzT%3+e9[(J=J4:\0Ug7*:<-6(/7X(c9i*7=+I#/XO/_3WuYah$\g(3907a8q+y
36+S7\) [ H$#<23/h2<9z$:]Oux8<k:DAJ$,QP3e/ep7Kk-[xo:_3wUkAH$9CD;)10
'8R4:=2'7=-W+*7h7=#Y<b=262Zf;*02,_-WF) hZh]+:O0*77k5-[XO[_3W<Wg3yx8
o;2j280SP3$xZt%3P>9-u/1#T8B33t9#m-'xLY=3X>(12>9QP:o6*77K/-[xuho'((6
e39I# 9x jP7\) [ t$+ZK'9$#/-')<9c*57%(3[BS;x#9<) 2>8qp:O>*77Z#ZYa:L
)'H#9[(j=-P:=2'7Bjw6B0;$.pk[y2u$uQu:RAH7!v,(9MuY=#9;) 2>sQP:B8!:_jq
7Y*h$#-W+*7h5j#Y<b=262Zf;*02,_-WF) hZh]+:O0*77k5-[XO[_3W<Wg3yx8
o;$U280SPCuxZt%3u)9-u/1#T8B33t9#m-'xLY=3X>(12>9QP:o6*77K/-[xuho'((6
e3(h# 9x j97\) [ S$+ZK'9$#/-')<9c*57%(3[BS;x#9<) 2>8qp:O>*77Z#ZYa:L
!$ 2y.'l
.ends gt3_bBiasMasterRCal20X
