** End of subcircuit definition.
************************************
** Library name: rnr_gtx_ade
** Cell name: gtp_sys_custom_v2
** View name: schematic
************************************
.subckt gtp_sys_custom_v2 AVCCPLL AVSS CLKN CLKP DC_coupled_b localm localp
+pwrdn_b
.prot FREELIB
7W%2g+ZK:Ki]87g=.]X78\##+]X!J)/t.nDOwY<=y
kU2h#Kw'\0u$sQi>/_0
[b##+OX;<SgtFrXAyjR+H/1\L
s3w!=$2G+G/2RI2[_;u(e1: [
g+:W[I$19K<9>*)$][y
38H$19/%]IL$19k<9pa.st!2R2 .-##+ox78.#=0k=L>7%V%5Ii$.x5O=d/$+0#'B[0
oOstqKi].-$[y
38H7XMPv937G9'w!y%:p9pk%R,2A#dg:N[ ]7[y%k$L37[y<Bx!jJ/F[w=u[0%=Y
38H7XM+v937G9'w!y%:p9pk%R,2A#dg:N[ ]7[y%k$L37[y<Bx!jJ/F[w=u[0%=Y
38Hpe#F!503$#<2C/x!8yOwz=pR$o\;K9GZvq#D+%(2A#dg:\3!:0:w'\>a6,%w'\0u$oS3Q-37G9K$<X23l
+vw6-G3tD#D+%(20=jX(/M0
'4Z:<Ki].-c$<9=p[S*=F9=p/9##;'1:/2Z/F4XI,8D q-XpX4[K+9g's6Z:<Ki].-c$<6
BM8.'v 6
.ends gtp_sys_custom_v2
