.subckt gtp_clk_buf AVCCPLL AVSS DC_coupled inm inp localm localp pwrdn_b
+vbiasn
.prot FREELIB
5A9[Nf,<5A9[Nf,<5A9[Nf,<5A9[Nf,<5A9[Nf,<5A9[Nf,<5A9[Nf,<5A9[Nf,<56
9[N7s*!bX7/7s*9973H\k)o9-(:9cv+9.\$%H):*e':1g29%XzT%%#<xX!Jj/K8b>lm6k!7E0IH[
,<598z6rsW2Y./T7:#F*X.$.'v[*Bp5!T! 6
9[Nf,<5A9[Nf,<5A9[Nf,<5A9[Nf,<5A9[Nf,<5A9[Nf,<5A9[Nf,<5A9[Nf,<5A90
Nf,<5A9[Nf,<5A9[Nf,<5A9[Nf,<5A9[Nf,<5A9[Nf,<5A9[Nf,<5A9[Nf,<5A9[N[
,<59B!3M0$F#X-61'$u9=zV7+#%9_3w\##+]4'$#<2FW0'L
F,<5a9[nF,<5a9[nF,<5a9[nF,<5a9[nF,<5a9[nF,<5a9[nF,<5a9[nF,<5a9[nF8
XzR./G,#$6k>g6,%w'\0u$19k<c$L37[y%kz
[nF,<5a9[nF,<5a9[nF,<5a9[nF,<5a9[nF,<5a9[nF,<5a9[nF,<5a9[nF,<5a9[l
F,<:o='[/<;:X6;89Ck m6ul
F,<5a9[nF,<5a9[nF,<5a9[nF,<5a9[nF,<5a9[nF,<5a9[nF,<5a9[nF,<5a9[nF8
oU38s-)C+=38H-\\P:38s-)C+=]p_7>#o!:lZt%v3:5-u/6*=f9=P/9/TfRxF8\tkUR-'$,Q+h[%m$uQ+hi42GyQ+h/jJ0.#$<)1-7.#to)1-(<$W2bahZh$W+YP*7!5+P*\:77\5<) -9x;)*/ 2,84K-'B:PxJ+(*\:77X57%a+ZIJ+(/1(=x3W+3ah$#2/0=AH$\4(39246_3X3:je(J<_(/z
F>)Ci=38:-)CP=o[H.=ru>9E7)54#(q$ C=Yw7w/w80SiML%2G+zkQ]IL$19k<c$L374 Um0o3+Swf)1-7B$wI)1-0R#$o)1-P$-429=Uyx+p29$ yx+jP0XI/_3x>0Xz:YqpH21+T3Jp:=6Uy=+h(U25P=#M;30*0!u+(/1:T3Jp:D6Fv_-X(/1:pX<6([xZ'_3w+N>D8_3wU3AH$0xT-:be9$j+>*\:7[
497W/W'4-'u= 2'4V'+*7+5'5W2%[GX74#>Qe755\) 'u2g+ZKq]il$)\90bml<%#=-/Bh5r#M-/Bh9r#$o)1-PjRU29=uYX++3:/i$.d((e*y\7*k-/b))R# ;%A+zX-L9!1H$#'k-ib+9J<6([x4:)z((e%J$u'oO)1-0B# 7) 28oGV+) 2>)QP:*cIyx+4>UHE)[
497W/W'4-'u=%2'4V'7W%W80sUm9mA_6%Kq-R+%7[Y<bDI3,#$6b0G6,%W7=md/\%Y 9i*P!3UR9c*P!3hR9= yx++3:/I$1z((e1)0B*w2%A:zJv!:]0*p!UHr9[3v_rXp2U(=X3w+y0*0!juE*\:77x57BA:z<-wIyE YX+uC9[FY=# zk.ZY=#97) 2TU*((E/t9<Vjy
3MFhHEo!ulo8=#o!:lZt%v3]:xFhHE 9XvJCB#$6B0g6,%w'\0u..%=:3[oW9K=6XxLYX+PC0x4YX+iE0x;v_jX((ji$1Z((E1E9.#to) -s$$W2bahZj5!:=6 y=+hw/25P=# ;bahZ$u+9!1h$U'O<)1-57X57%a:Zb# 7) 28Ogv+)%2>)qp:*CiYX+3Ms%TS[
497W/W'4J'uO12g+ZKq]il$)cI==2'0Ei4P/X;<9ZS2ri2g+ZKq]il$)\90b7d'bRWF)%M$UqUR9= yx+33]X;/_Jx>2$26yQuhu m$.z(>e/y\7\5O)v-)$v)*/%288z(pe/yS0.+C9C3'9Q+h'U2,84;-[128)QP:=GaW#QP:oE*7[
497W/W'4J'uO1G7<-4:5-U/6*=F9e7)5\) IF_)EyW'\0U..%=:5-U/6*=F9ez>MZ203%+$,qUR9c*5r#$o)1-s=*W'ba:Zh5t:]p*5!;Pr9$uYH+i)0xZ:yQ4h:jst3ju:=6uY<+i)u25pB#m;30*p!-3:D6Fv_3+:=E*77\D%m[*77Ko-[z
F>)Ci=38:-\K+Q[vJ97[y<Bdi3,#o!:lZt%r,]uf:$19k<c$L37[y<Bdi3,#o+o.ujm4up9I*5R#m-'42GyQ+hu i$1z((e/y67*;-'B)7r#t<)/-)$$W+YP*0!Vh>*\:57\5<)V-)$;)*/%2,84K-/Bjs7X57%ahP7\O-[XzaST -[XO'_3Q
7Oe7)54#(QmOP634c$X;<9ZS2ri2'4V'+*7+;';3c9=p/9/tFrX;<9ZS2ri2'#kv<x.f5<#=-'42,_-!:5P*P!;p29=Uyx+33]Xiv_-XM[4269Quhu m$#';-ibs9H<6('xZ:9Q4h:jst3ju:D6F/_vXE(x4:)d(3/xZ'_3w+N>D8_3wU3AHl
)Ko!:lFhXE9U/dH0BYw'\0u..%=:38s-#<2p(')SH#$6B0g6,%w'\0u..%=:3[oW9SV7'v23_-!:DAJ\7[;-/b)7.#$<)1-S=*w2%ajZj3!:]0*5!;pR9[3V_Rx>2/(=x-W+Y0*0!Vh>*\:57X57bajZ<5WiYe y=JW+3ah$#2/0=ah$\4(36
eO'4V'7W1W>\JS3I%E$19K<C$l374#>Q[(J<]zmUJ2g+ZKq]il$19K<C$l374 uM0'w)-4:raj\7X(c0X;V_Jxm[$2g9q+H:JI$.d(CeUH\7*k-:bs9R# ;%A+zH5i9!1J$#'k-ibs9J<6('x4:)z((e%)$u'oO) :$#4(39[![m\(39MFY=8
oU38s-)C+=oM:.=r3(9=P/9/TfRxFhHE 9XveCB-u:5-u/6*=f9=P/9/TfRxF8\tk mEJ07%(C0x4YB$w'%A:zJ3T:50*p!;P29$ yb+330XI/_-xm[4288D(PE/Y)0.+c9[3/_Rx>2/(=x-WiYeUyh+l#9c3'Yqp(9[fy=# ZK.zy=#97) 0
'\4#>Qe7P5k9(C +s=#$6b0G6,%W7W/W80s4#l Y)7[Y<bDI3,#$6b0G6,%W7=md/%TOcIXlyb$Wi)%M$1D((Euh67[K-/B)7.#TO)%-S=$w2BAJzJ3!:=6 Y<+i):25pB# ;BA+zH5i9!1J$u'o<)/-*e#m;3p*7X# 7) 28oGV+) 2>)QPY
3MFhHEo!/lo>X/Ppu%2G+zkQ]IL$)Ci==2'0eI4>9=P/9/TfRx;<9zs2RI2'#KV<X.F5<#=-'42,_-!:5p*p!;P29=uYX+33]xIV_-xm[4269qUHU M$#';-IBS9h<6('Xz:9q4H:JST3JU:d6f/_Vxe(X4:)D(3/Xz'_3W+n>d8_3Wu3ahL
)Ko!:lFhXE9U/dH0J;w'\0u..%=:38s-#<2p('J5J#$6B0g6,%w'\0u..%=:3[oW9SV7'v23_-!:DAJ\7[;-/b)7.#$<)1-S=*w2%ajZj3!:]0*5!;pR9[3V_Rx>2/(=x-W+Y0*0!Vh>*\:57X57bajZ<5WiYe y=JW+3ah$#2/0=ah$\4(36
eO'4V'7W1W>\JS3IuS$19K<C$l374#>Q[(J<]z32J2g+ZKq]il$19K<C$l374 uM0'w)-4:raj\7X(c0X;V_Jxm[$2g9q+HU I$.d(CeUH\7*k-'b)7R# ;%A+zH5i9!1J$#'k-ibs9H<6('x4:)z(Cevy$u'oO) :$#4(39[![m\(39MFY=8
oU38s-)C+=oM:.=r3p9=P/9/TfRxFhHE 9XveC<rw'\0u..%=:5-u/6*=f9EZ>mz203%+$,Qur9C*5R#$O)1-S=*w'BA:zJ3T:]P*5!;pR9$Uyb+330Xz:Yq4H:JST3JU:=6Uy<+I):25Pb#M;30*5!Rh:d6fV_3+:=e*77\d%M[*77kO-[Z
F>)Ci=38:-\K+Q[v)97[y<Bdi3,#o!:lZt%r,]'%s$19k<c$L37[y<Bdi3,#o+o.ujm4up9I*5R#m-'42GyQ+hu i$1z((e/y67*;-'B)7r#t<)/-)$$W+YP*0!Vh>*\:57\5<)V-)$;)*/%2,84K-/Bjs7X57%ahP7\O-[XzaST -[XO'_3Q
7Oe7)54#(QmOP634m$X;<9ZS2ri2'4V'+*7+;'3he9=p/9/tFrX;<9ZS2ri2'#kv<x.f5<#=-'42,_-!:5P*P!;p29=Uyx+I)]Xiv_-XM[4269Qih:jm$#';-ibs9H<6('xZ:9Q4h:j)t3ju:D6F/_jXCux4:)d(3/xZ'_3w+N>D8_3wU3AHl
)Ko!:lFhXE9U/dH0JYw'\0u..%=:38s-#<2p('+97[y<Bdi3,#$6B0g6,%w7=MD/%toCixLYB$wI)%m$1d((eUH67[k-/bs9.#to)%-s=$W2baSZh5!:=6 y<+I):25Pb# ;ba+Zh539!1j$U'O<)1-5j#M;3P*7x# 7) 28Ogv+) 2>)qpy
3MFhHEo!/lo>X/Ppuf2G+zkQ]IL$)Ci==2'0eI4>(x;<9zs2RI2G+zkQ]IL$)\90B7D'Brwf)%m$uQur9= YX+33]x;/_jXM[$26YqUHU M$.Z(cEuh\7\5o)V-)$V)*/%288Z(PE/Y)0.+c9c3'9qUHIJ2,84;-[128)qp:=gAw#qp:Oe*7[
497W/W'4J'uO1G7<V+:5-U/6*=F9e7)5\) IF_)E5W'\0U..%=:5-U/6*=F9ez>MZ203%+$,qUR9c*5r#$o)1-s=*W'ba:Zj3t:]p*5!;Pr9$uYB+330xZ:yQ4h:jst3ju:=6uY<+i):25pB#m;30*5!rH:D6Fv_3+:=E*77\D%m[*77Ko-[z
F>)Ci=38:-\K+Q[vs77[y<Bdi3,#o!:lZt%r,]uhe$19k<c$L37[y<Bdi3,#o+o.ujm4up9I*5R#m-'42GyQ+hu i$1z((eUH67*;-'B)7r#t<)%-s=$W+YP*0!Vh>*\:57\5<)V-)$V)*/%2,84K-'B+97X57%ahP7\O-[XzaST -[XO'_3Q
7Oe7)54#(QmOP634>'X;<9ZS2ri2'4V'+*7+;';3(9=p/9/tFrX;<9ZS2ri2'#kv<x.f5<#=-'42,_-!:5P*P!;p29=Uyx+33]Xiv_-XM[4269Quhu m$#';-ibs9H<6('xZ:9Q4h:jst3ju:D6F/_UXC'x4:)d(3/xZ'_3w+N>D8_3wU3AHl
)Ko!:lFhXE9U/dH0H;w'\0u..%=:38s-#<2p('J5=#$6B0g6,%w'\0u..%=:3[oW9SV7'v23_-!:DAJ\7[;-/b)7.#$<)1-S=*w2%ajZj3!:]0*5!;pR9[3V_Rx>2/(=x-W+Y0*0!Vh>*\:57X57batZb-WiYe y=JW+3ah$#2/0=ah$\4(36
eO'4V'7W1W>\JS3I/S$19K<C$l374#>Q[(J<]z32%2g+ZKq]il$19K<C$l374 uM0'w)-4:raj\7X(c0X;V_Jxm[$2g9q+HU I$.d(CeUH\7*k-'b)7R# ;%A+zH5i9!1J$#'k-ibs9H<6('x4:)z(We%J$u'oO) :$#4(39[![m\(39MFY=8
oU38s-)C+=oM:.=rip9=P/9/TfRxFhHE 9XveC<;w'\0u..%=:5-u/6*=f9EZ>mz203%+$,Qur9C*5R#$O)1-S=*w'BA:zJ3T:]P*5!;pR9$Uyb+330Xz:Yq4H:JST3JU:=6Uy<+I):25Pb#M;30*(!-U:d6fV_3+:=e*77\d%M[*77kO-[Z
F>)Ci=38:-\K+Q[vs97[y<Bdi3,#o!:lZt%r,]i/y$19k<c$L37[y<Bdi3,#o+o.ujm4up9I*5R#m-'42GyQ+hu i$1z((eUH67*;-'B)7r#t<)%-s=$W+YP*0!Vh>*\:57\5<)V-)$V)*/%2,84K-(B+07X57%ahP7\O-[XzaST -[XO'_3Q
7Oe7)54#(QmOP634>$X;<9ZS2ri2'4V'+*7+;'V,(9=p/9/tFrX;<9ZS2ri2'#kv<x.f5<#=-'42,_-!:5P*P!;p29=Uyx+33]Xiv_-XM[4269Quhu m$#';-ibs9H<6('xZ:9Q4h:jst3ju:D6F/_]Xpix4:)d(3/xZ'_3w+N>D8_3wU3AHl
)Ko!:lFhXE9U/dH0HYw'\0u..%=:38s-#<2p(')*$#$6B0g6,%w'\0u..%=:3[oW9SV7'v23_-!:DAJ\7[;-/b)7.#$<)1-S=*w2%ajZj3!:]0*5!;pR9[3V_Rx>2/(=x-W+Y0*0!Vh>*\:57X57baEZ<RWiYe y=JW+3ah$#2/0=ah$\4(36
eO'4V'7W1W>\JS3I/E$19K<C$l374#>Q[(J<]zP:*2g+ZKq]il$19K<C$l374 uM0'w)-4:raj\7X(c0X;V_Jxm[$2g9q+HU I$.d(CeUH\7*k-'b)7R# ;%A+zH5i9!1J$#'k-ibs9H<6('x4:)z(We%J$u'oO) :$#4(39[![m\(39MFY=8
oU38s-)C+=oM:.=r4(9=P/9/TfRxFhHE 9XveCH]u:5-u/6*=f9=P/9/TfRxF8\tk mEJ07%(C0x4YB$w'%A:zJ3T:50*p!;P29$ yb+330XI/_-xm[4288D(PE/Y)0.+c9[3/_Rx>2/(=x-WiYeUyI+Uc9c3'Yqp(9[fy=# ZK.zy=#97) 0
'\4#>Qe7P5k9(C +0=#$6b0G6,%W7W/W80s4#luv(7[Y<bDI3,#$6b0G6,%W7=md/%TOcIXlyb$Wi)%M$1D((Euh67[K-/B)7.#TO)%-S=$w2BAJzJ3!:=6 Y<+i):25pB# ;BA+zH5i9!1J$u'o<)*-5B#m;3p*7X# 7) 28oGV+) 2>)QPY
3MFhHEo!/lo>X/Ppi%2G+zkQ]IL$)Ci==2'0eI4>sx;<9zs2RI2G+zkQ]IL$)\90B7D'Brwf)%m$uQur9= YX+33]x;/_jXM[$26YqUHU M$.Z(cEuh\7\5o)V-)$V)*/%288Z(PE/Y)0.+c9c3'9qIHSF2,84;-[128)qp:=gAw#qp:Oe*7[
497W/W'4J'uO1G7<R3:5-U/6*=F9e7)5\) IF_)EVW'\0U..%=:5-U/6*=F9ez>MZ203%+$,qUR9c*5r#$o)1-s=*W'ba:Zj3t:]p*5!;Pr9$uYB+330xZ:yQ4h:jst3ju:=6uY<+i):25pB#m;30*)!Y,:D6Fv_3+:=E*77\D%m[*77Ko-[z
F>)Ci=38:-\K+Q[v+)7[y<Bdi3,#o!:lZt%r,]uhV$19k<c$L37[y<Bdi3,#o+o.ujm4up9I*5R#m-'42GyQ+hu i$1z((eUH67*;-'B)7r#t<)%-s=$W+YP*0!Vh>*\:57\5<)V-)$V)*/%2,84K-:Bv;7X57%ahP7\O-[XzaST -[XO'_3Q
7Oe7)54#(QmOP634PIX;<9ZS2ri2'4V'+*7+;';U>9=p/9/tFrX;<9ZS2ri2'#kv<x.f5<#=-'42,_-!:5P*P!;p29=Uyx+33]Xiv_-XM[4269Quhu m$#';-ibs9H<6('xZ:9Q4h:jst3ju:D6F/_3+:D6Fv_3+:=E*77\D%m[*77Ko-[z
F>)Ci=38:-\K+Q[v+97[y<Bdi3,#o!:lZt%r,]u%y$19k<c$L37[y<Bdi3,#o+o.ujm4up9I*5R#m-'42GyQ+hu i$1z((eUH67*;-'B)7r#t<)%-s=$W+YP*0!Vh>*\:57\5<)V-)$V)*/%2,84K-[12,84;-[128)qp:=gAw#qp:Oe*7[
497W/W'4J'uO1G7<Rj:5-U/6*=F9e7)5\) IF_sbyW'\0U..%=:5-U/6*=F9ez>MZ203%+$,qUR9c*5r#$o)1-s=*W'ba:Zj3t:]p*5!;Pr9$uYB+330xZ:yQ4h:jst3ju:=6uY<+i):25pB#m;30*;!r4:D6Fv_3+:=E*77\D%m[*77Ko-[z
F>)Ci=38:-\K+Q[v+*7[y<Bdi3,#o!:lZt%r,]' V$19k<c$L37[y<Bdi3,#o+o.ujm4up9I*5R#m-'42GyQ+hu i$1z((eUH67*;-'B)7r#t<)%-s=$W+YP*0!Vh>*\:57\5<)V-)$V)*/%2,84K-[12,84;-[128)qp:=gAw#qp:Oe*7[
497W/W'4J'uO1G7<R,:5-U/6*=F9e7)5\) IF_7<5W'\0U..%=:5-U/6*=F9ez>MZ203%+$,qUR9c*5r#$o)1-s=*W'ba:Zj3t:]p*5!;Pr9$uYB+330xZ:yQ4h:jst3ju:=6uY<+i):25pB#m;30*7X#m;3p*7X# 7) 28oGV+) 2>)QPY
3MFhHEo!/lo>X/Pp212G+zkQ]IL$)Ci==2'0eI4(9=P/9/TfRx;<9zs2RI2'#KV<X.F5<#=-'42,_-!:5p*p!;P29=uYX+33]xIV_-xm[4269qUHU M$#';-IBS9h<6('Xz:9q4H:JST3JU:d6f/_3+:d6fV_3+:=e*77\d%M[*77kO-[Z
F>)Ci=38:-\K+Q[vy77[y<Bdi3,#o!:lZt%r,]' e$19k<c$L37[y<Bdi3,#o+o.ujm4up9I*5R#m-'42GyQ+hu i$1z((eUH67*;-'B)7r#t<)%-s=$W+YP*0!Vh>*\:57\5<)V-)$V)*/%2,84K-[12,84;-[128)qp:=gAw#qp:Oe*7[
497W/W'4J'uO1G7<5U:5-U/6*=F9e7)5\) IF_7<yW'\0U..%=:5-U/6*=F9ez>MZ203%+$,qUR9c*5r#$o)1-s=*W'ba:Zj3t:]p*5!;Pr9$uYB+330xZ:yQ4h:jst3ju:=6uY<+i):25pB#m;30*7X#m;3p*7X# 7) 28oGV+) 2>)QPY
3MFhHEo!/lo>X/Pp2U2G+zkQ]IL$)Ci==2'0eI439=P/9/TfRx;<9zs2RI2'#KV<X.F5<#=-'42,_-!:5p*p!;P29=uYX+33]xIV_-xm[4269qUHU M$#';-IBS9h<6('Xz:9q4H:JST3JU:d6f/_3+:d6fV_3+:=e*77\d%M[*77kO-[Z
F>)Ci=38:-\K+Q[vy)7[y<Bdi3,#o!:lZt%r,]'%:$19k<c$L37[y<Bdi3,#o+o.ujm4up9I*5R#m-'42GyQ+hu i$1z((eUH67*;-'B)7r#t<)%-s=$W+YP*0!Vh>*\:57\5<)V-)$V)*/%2,84K-(B+07X57%ahP7\O-[XzaST -[XO'_3Q
7Oe7)54#(QmOP634)IX;<9ZS2ri2'4V'+*7+;'3h(9=p/9/tFrX;<9ZS2ri2'#kv<x.f5<#=-'42,_-!:5P*P!;p29=Uyx+33]Xiv_-XM[4269Quhu m$#';-ibs9H<6('xZ:9Q4h:jst3ju:D6F/_]Xpix4:)d(3/xZ'_3w+N>D8_3wU3AHl
)Ko!:lFhXE9U/dH0$5w'\0u..%=:38s-#<2p('+57[y<Bdi3,#$6B0g6,%w7=MD/%toCixLYB$wI)%m$1d((eUH67[k-/b)7.#to)%-s=$W2bajZj3!:=6 y<+I):25Pb# ;ba+Zh5I9!1j$U'O<)F-0<#M;3P*7x# 7) 28Ogv+) 2>)qpy
3MFhHEo!/lo>X/Pp2*2G+zkQ]IL$)Ci==2'0eI4>ux;<9zs2RI2G+zkQ]IL$)\90B7D'Brwf)%m$uQur9= YX+33]x;/_jXM[$26YqUHU M$.Z(cEuh\7\5o)V-)$V)*/%288Z(PE/Y)0.+c9c3'9qp(9c3'Yqp(9[fy=# ZK.zy=#97) 0
'\4#>Qe7P5k9(C +9>#$6b0G6,%W7W/W80s4#l/v)7[Y<bDI3,#$6b0G6,%W7=md/%TOcIXlyb$Wi)%M$1D((Euh67[K-/B)7.#TO)%-S=$w2BAJzJ3!:=6 Y<+i):25pB# ;BA+zH5i9!1J$u'o<) :$u'oO) :$#4(39[![m\(39MFY=8
oU38s-)C+=oM:.=rH#9=P/9/TfRxFhHE 9XveCJY3:5-u/6*=f9=P/9/TfRxF8\tk mEJ07%(C0x4YB$w'%A:zJ3T:50*p!;P29$ yb+330XI/_-xm[4288D(PE/Y)0.+c9[3/_Rx>2/(=x-WiYeUy=JWiYe y=JW+3ah$#2/0=ah$\4(36
eO'4V'7W1W>\JS3I*:$19K<C$l374#>Q[(J<]zP:/2g+ZKq]il$19K<C$l374 uM0'w)-4:raj\7X(c0X;V_Jxm[$2g9q+HU I$.d(CeUH\7*k-'b)7R# ;%A+zH5i9!1J$#'k-ibs9H<6('x4:)z(3/x4:)d(3/xZ'_3w+N>D8_3wU3AHl
)Ko!:lFhXE9U/dH0i3w'\0u..%=:38s-#<2p('s*$#$6B0g6,%w'\0u..%=:3[oW9SV7'v23_-!:DAJ\7[;-/b)7.#$<)1-S=*w2%ajZj3!:]0*5!;pR9[3V_Rx>2/(=x-W+Y0*0!Vh>*\:57X57bahP7X57%ahP7\O-[XzaST -[XO'_3Q
7Oe7)54#(QmOP634w'X;<9ZS2ri2'4V'+*7+;';l>9=p/9/tFrX;<9ZS2ri2'#kv<x.f5<#=-'42,_-!:5P*P!;p29=Uyx+33]Xiv_-XM[4269Quhu m$#';-ibs9H<6('xZ:9Q4h:jst3ju:D6F/_3+:D6Fv_3+:=E*77\D%m[*77Ko-[z
F>)Ci=38:-\K+Q[vTS7[y<Bdi3,#o!:lZt%r,]i/+$19k<c$L37[y<Bdi3,#o+o.ujm4up9I*5R#m-'42GyQ+hu i$1z((eUH67*;-'B)7r#t<)%-s=$W+YP*0!Vh>*\:57\5<)V-)$V)*/%2,84K-[12,84;-[128)qp:=gAw#qp:Oe*7[
497W/W'4J'uO1G7<uI:5-U/6*=F9e7)5\) IF_)>yW'\0U..%=:5-U/6*=F9ez>MZ203%+$,qUR9c*5r#$o)1-s=*W'ba:Zj3t:]p*5!;Pr9$uYB+330xZ:yQ4h:jst3ju:=6uY<+i):25pB#m;30*7X#m;3p*7X# 7) 28oGV+) 2>)QPY
3MFhHEo!/lo>X/Pp$v2G+zkQ]IL$)Ci==2'0eI3Eix;<9zs2RI2G+zkQ]IL$)\90B7D'Brwf)%m$uQur9= YX+33]x;/_jXM[$26YqUHU M$.Z(cEuh\7\5o)V-)$V)*/%288Z(PE/Y)0.+c9c3'9qp(9c3'Yqp(9[fy=# ZK.zy=#97) 0
'\4#>Qe7P5k9(C +($#$6b0G6,%W7W/W80s4#luh*7[Y<bDI3,#$6b0G6,%W7=md/%TOcIXlyb$Wi)%M$1D((Euh67[K-/B)7.#TO)%-S=$w2BAJzJ3!:=6 Y<+i):25pB# ;BA+zH5i9!1J$u'o<) :$u'oO) :$#4(39[![m\(39MFY=8
oU38s-)C+=oM:.=rJW9=P/9/TfRxFhHE 9XveCJ-+:5-u/6*=f9=P/9/TfRxF8\tk mEJ07%(C0x4YB$w'%A:zJ3T:50*p!;P29$ yb+330XI/_-xm[4288D(PE/Y)0.+c9[3/_Rx>2/(=x-WiYeUy=JWiYe y=JW+3ah$#2/0=ah$\4(36
eO'4V'7W1W>\JS3I*v$19K<C$l374#>Q[(J<]zm'%2g+ZKq]il$19K<C$l374 uM0'w)-4:raj\7X(c0X;V_Jxm[$2g9q+HU I$.d(CeUH\7*k-'b)7R# ;%A+zH5i9!1J$#'k-ibs9H<6('x4:)z(3/x4:)d(3/xZ'_3w+N>D8_3wU3AHl
)Ko!:lFhXE9U/dH0i]w'\0u..%=:38s-#<2p('J7<#$6B0g6,%w'\0u..%=:3[oW9SV7'v23_-!:DAJ\7[;-/b)7.#$<)1-S=*w2%ajZj3!:]0*5!;pR9[3V_Rx>2/(=x-W+Y0*0!Vh>*\:57X57bahP7X57%ahP7\O-[XzaST -[XO'_3Q
7Oe7)54#(QmOP634e/X;<9ZS2ri2'4V'+*7+;'34(9=p/9/tFrX;<9ZS2ri2'#kv<x.f5<#=-'42,_-!:5P*P!;p29=Uyx+33]Xiv_-XM[4269Quhu m$#';-ibs9H<6('xZ:9Q4h:jst3ju:D6F/_3+:D6Fv_3+:=E*77\D%m[*77Ko-[z
F>)Ci=38:-\K+Q[vV77[y<Bdi3,#o!:lZt%r,]:*2G+zkQ]IL$19k<c$L374 Um0'W)-4:RAJ\7x(C0x;v_jXM[$2G9Q+hu i$.D(cEuh\7*K-'B)7r# ;%a+Zh5I9!1j$#'K-IBS9h<6('X4:)Z(3/X4:)D(3/Xz'_3W+n>d8_3Wu3ahL
)Ko!:lFhXE9U/dH0>-w'\0u..%=:38s-#<2p('J7$#$6B0g6,%w'\0u..%=:3[oW9SV7'v23_-!:DAJ\7[;-/b)7.#$<)1-S=*w2%ajZj3!:]0*5!;pR9[3V_Rx>2/(=x-W+Y0*0!Vh>*\:57X57bahP7X57%ahP7\O-[XzaST -[XO'_3Q
7Oe7)54#(QmOP634eUX;<9ZS2ri2'4V'+*7+;'34c9=p/9/tFrX;<9ZS2ri2'#kv<x.f5<#=-'42,_-!:5P*P!;p29=Uyx+33]Xiv_-XM[4269Quhu m$#';-ibs9H<6('xZ:9Q4h:jst3ju:D6F/_3+:D6Fv_3+:=E*77\D%m[*77Ko-[z
F>)Ci=38:-\K+Q[vV)7[y<Bdi3,#o!:lZt%r,]:h2G+zkQ]IL$19k<c$L374 Um0'W)-4:RAJ\7x(C0x;v_jXM[$2G9Q+hu i$.D(cEuh\7*K-'B)7r# ;%a+Zh5I9!1j$#'K-IBS9h<6('X4:)Z(3/X4:)D(3/Xz'_3W+n>d8_3Wu3ahL
)Ko!:lFhXE9U/dH0>rw'\0u..%=:38s-#<2p('J7i#$6B0g6,%w'\0u..%=:3[oW9SV7'v23_-!:DAJ\7[;-/b)7.#$<)1-S=*w2%ajZj3!:]0*5!;pR9[3V_Rx>2/(=x-W+Y0*0!Vh>*\:57X57bahP7X57%ahP7\O-[XzaST -[XO'_3Q
7Oe7)54#(QmOP634e2X;<9ZS2ri2'4V'+*7+;'34>9=p/9/tFrX;<9ZS2ri2'#kv<x.f5<#=-'42,_-!:5P*P!;p29=Uyx+33]Xiv_-XM[4269Quhu m$#';-ibs9H<6('xZ:9Q4h:jst3ju:D6F/_3+:D6Fv_3+:=E*77\D%m[*77Ko-[z
F>)Ci=38:-\K+Q[vV(7[y<Bdi3,#o!:lZt%r,]:f2G+zkQ]IL$19k<c$L374 Um0'W)-4:RAJ\7x(C0x;v_jXM[$2G9Q+hu i$.D(cEuh\7*K-'B)7r# ;%a+Zh5I9!1j$#'K-IBS9h<6('X4:)Z(3/X4:)D(3/Xz'_3W+n>d8_3Wu3ahL
)Ko!:lFhXE9U/dH0>Yw'\0u..%=:38s-#<2p('+)B#$6B0g6,%w'\0u..%=:3[oW9SV7'v23_-!:DAJ\7[;-/b)7.#$<)1-S=*w2%ajZj3!:]0*5!;pR9[3V_Rx>2/(=x-W+Y0*0!Vh>*\:57X57bahP7X57%ahP7\O-[XzaST -[XO'_3Q
7Oe7)54#(QmOP634e(X;<9ZS2ri2'4V'+*7+;'Vlc9=p/9/tFrX;<9ZS2ri2'#kv<x.f5<#=-'42,_-!:5P*P!;p29=Uyx+33]Xiv_-XM[4269Quhu m$#';-ibs9H<6('xZ:9Q4h:jst3ju:D6F/_3+:D6Fv_3+:=E*77\D%m[*77Ko-[z
F>)Ci=38:-\K+Q[vep7[y<Bdi3,#o!:lZt%r,]uhJ$19k<c$L37[y<Bdi3,#o+o.ujm4up9I*5R#m-'42GyQ+hu i$1z((eUH67*;-'B)7r#t<)%-s=$W+YP*0!Vh>*\:57\5<)V-)$V)*/%2,84K-[12,84;-[128)qp:=gAw#qp:Oe*7[
497W/W'4J'uO1G7<]p:5-U/6*=F9e7)5\) IF_s=5W'\0U..%=:5-U/6*=F9ez>MZ203%+$,qUR9c*5r#$o)1-s=*W'ba:Zj3t:]p*5!;Pr9$uYB+330xZ:yQ4h:jst3ju:=6uY<+i):25pB#m;30*7X#m;3p*7X# 7) 28oGV+) 2>)QPY
3MFhHEo!/lo>X/Pp(%2G+zkQ]IL$)Ci==2'0eIu3:x;<9zs2RI2G+zkQ]IL$)\90B7D'Brwf)%m$uQur9= YX+33]x;/_jXM[$26YqUHU M$.Z(cEuh\7\5o)V-)$V)*/%288Z(PE/Y)0.+c9c3'9qp(9c3'Yqp(9[fy=# ZK.zy=#97) 0
'\4#>Qe7P5k9(C +;j#$6b0G6,%W7W/W80s4#l S*7[Y<bDI3,#$6b0G6,%W7=md/%TOcIXlyb$Wi)%M$1D((Euh67[K-/B)7.#TO)%-S=$w2BAJzJ3!:=6 Y<+i):25pB# ;BA+zH5i9!1J$u'o<) :$u'oO) :$#4(39[![m\(39MFY=8
oU38s-)C+=oM:.=r,>9=P/9/TfRxFhHE 9XveCH5w'\0u..%=:5-u/6*=f9EZ>mz203%+$,Qur9C*5R#$O)1-S=*w'BA:zJ3T:]P*5!;pR9$Uyb+330Xz:Yq4H:JST3JU:=6Uy<+I):25Pb#M;30*7x#M;3P*7x# 7) 28Ogv+) 2>)qpy
3MFhHEo!/lo>X/Pp(v2G+zkQ]IL$)Ci==2'0eI4M(x;<9zs2RI2G+zkQ]IL$)\90B7D'Brwf)%m$uQur9= YX+33]x;/_jXM[$26YqUHU M$.Z(cEuh\7\5o)V-)$V)*/%288Z(PE/Y)0.+c9c3'9qp(9c3'Yqp(9[fy=# ZK.zy=#97) 0
'\4#>Qe7P5k9(C +;$#$6b0G6,%W7W/W80s4#l/t97[Y<bDI3,#$6b0G6,%W7=md/%TOcIXlyb$Wi)%M$1D((Euh67[K-/B)7.#TO)%-S=$w2BAJzJ3!:=6 Y<+i):25pB# ;BA+zH5i9!1J$u'o<) :$u'oO) :$#4(39[![m\(39MFY=8
oU38s-)C+=oM:.=r,W9=P/9/TfRxFhHE 9XveCJU,:5-u/6*=f9=P/9/TfRxF8\tk mEJ07%(C0x4YB$w'%A:zJ3T:50*p!;P29$ yb+330XI/_-xm[4288D(PE/Y)0.+c9[3/_Rx>2/(=x-WiYeUy=JWiYe y=JW+3ah$#2/0=ah$\4(36
eO'4V'7W1W>\JS3IFv$19K<C$l374#>Q[(J<]zP:12g+ZKq]il$19K<C$l374 uM0'w)-4:raj\7X(c0X;V_Jxm[$2g9q+HU I$.d(CeUH\7*k-'b)7R# ;%A+zH5i9!1J$#'k-ibs9H<6('x4:)z(3/x4:)d(3/xZ'_3w+N>D8_3wU3AHl
)Ko!:lFhXE9U/dH0e]w'\0u..%=:38s-#<2p('s(>#$6B0g6,%w'\0u..%=:3[oW9SV7'v23_-!:DAJ\7[;-/b)7.#$<)1-S=*w2%ajZj3!:]0*5!;pR9[3V_Rx>2/(=x-W+Y0*0!Vh>*\:57X57bahP7X57%ahP7\O-[XzaST -[XO'_3Q
7Oe7)54#(QmOP63h(/X;<9ZS2ri2'4V'+*7+;';l(9=p/9/tFrX;<9ZS2ri2'#kv<x.f5<#=-'42,_-!:5P*P!;p29=Uyx+33]Xiv_-XM[4269Quhu m$#';-ibs9H<6('xZ:9Q4h:jst3ju:D6F/_3+:D6Fv_3+:=E*77\D%m[*77Ko-[z
F>)Ci=38:-\K+Q[j:77[y<Bdi3,#o!:lZt%r,]i/H$19k<c$L37[y<Bdi3,#o+o.ujm4up9I*5R#m-'42GyQ+hu i$1z((eUH67*;-'B)7r#t<)%-s=$W+YP*0!Vh>*\:57\5<)V-)$V)*/%2,84K-[12,84;-[128)qp:=gAw#qp:Oe*7[
497W/W'4J'uO1G7$JU:5-U/6*=F9e7)5\) IF_)>JW'\0U..%=:5-U/6*=F9ez>MZ203%+$,qUR9c*5r#$o)1-s=*W'ba:Zj3t:]p*5!;Pr9$uYB+330xZ:yQ4h:jst3ju:=6uY<+i):25pB#m;30*7X#m;3p*7X# 7) 28oGV+) 2>)QPY
3MFhHEo!/lo>X/P)/U2G+zkQ]IL$)Ci==2'0eI3E[x;<9zs2RI2G+zkQ]IL$)\90B7D'Brwf)%m$uQur9= YX+33]x;/_jXM[$26YqUHU M$.Z(cEuh\7\5o)V-)$V)*/%288Z(PE/Y)0.+c9c3'9qp(9c3'Yqp(9[fy=# ZK.zy=#97) 0
'\4#>Qe7P5k9(C YPh#$6b0G6,%W7W/W80s4#luhP7[Y<bDI3,#$6b0G6,%W7=md/%TOcIXlyb$Wi)%M$1D((Euh67[K-/B)7.#TO)%-S=$w2BAJzJ3!:=6 Y<+i):25pB# ;BA+zH5i9!1J$u'o<) :$u'oO) :$#4(39[![m\(39MFY=8
oU38s-)C+=oM:.=5+p9=P/9/TfRxFhHE 9XveCJ3u:5-u/6*=f9=P/9/TfRxF8\tk mEJ07%(C0x4YB$w'%A:zJ3T:50*p!;P29$ yb+330XI/_-xm[4288D(PE/Y)0.+c9[3/_Rx>2/(=x-WiYeUy=JWiYe y=JW+3ah$#2/0=ah$\4(36
eO'4V'7W1W>\JS321Y$19K<C$l374#>Q[(J<]zm[/2g+ZKq]il$19K<C$l374 uM0'w)-4:raj\7X(c0X;V_Jxm[$2g9q+HU I$.d(CeUH\7*k-'b)7R# ;%A+zH5i9!1J$#'k-ibs9H<6('x4:)z(3/x4:)d(3/xZ'_3w+N>D8_3wU3AHl
)Ko!:lFhXE9U/dH9XUw'\0u..%=:38s-#<2p('J7=#$6B0g6,%w'\0u..%=:3[oW9SV7'v23_-!:DAJ\7[;-/b)7.#$<)1-S=*w2%ajZj3!:]0*5!;pR9[3V_Rx>2/(=x-W+Y0*0!Vh>*\:57X57bahP7X57%ahP7\O-[XzaST -[XO'_3Q
7Oe7)54#(QmOP63h(SX;<9ZS2ri2'4V'+*7+;'3Ic9=p/9/tFrX;<9ZS2ri2'#kv<x.f5<#=-'42,_-!:5P*P!;p29=Uyx+33]Xiv_-XM[4269Quhu m$#';-ibs9H<6('xZ:9Q4h:jst3ju:D6F/_3+:D6Fv_3+:=E*77\D%m[*77Ko-[z
F>)Ci=38:-\K+Q[j:;7[y<Bdi3,#o!:lZt%r,]:U2G+zkQ]IL$19k<c$L374 Um0'W)-4:RAJ\7x(C0x;v_jXM[$2G9Q+hu i$.D(cEuh\7*K-'B)7r# ;%a+Zh5I9!1j$#'K-IBS9h<6('X4:)Z(3/X4:)D(3/Xz'_3W+n>d8_3Wu3ahL
)Ko!:lFhXE9U/dH9=jw'\0u..%=:38s-#<2p('J7B#$6B0g6,%w'\0u..%=:3[oW9SV7'v23_-!:DAJ\7[;-/b)7.#$<)1-S=*w2%ajZj3!:]0*5!;pR9[3V_Rx>2/(=x-W+Y0*0!Vh>*\:57X57bahP7X57%ahP7\O-[XzaST -[XO'_3Q
7Oe7)54#(QmOP63h3[X;<9ZS2ri2'4V'+*7+;'3I>9=p/9/tFrX;<9ZS2ri2'#kv<x.f5<#=-'42,_-!:5P*P!;p29=Uyx+33]Xiv_-XM[4269Quhu m$#';-ibs9H<6('xZ:9Q4h:jst3ju:D6F/_3+:D6Fv_3+:=E*77\D%m[*77Ko-[z
F>)Ci=38:-\K+Q[jH57[y<Bdi3,#o!:lZt%r,]:/2G+zkQ]IL$19k<c$L374 Um0'W)-4:RAJ\7x(C0x;v_jXM[$2G9Q+hu i$.D(cEuh\7*K-'B)7r# ;%a+Zh5I9!1j$#'K-IBS9h<6('X4:)Z(3/X4:)D(3/Xz'_3W+n>d8_3Wu3ahL
)Ko!:lFhXE9U/dH9=;w'\0u..%=:38s-#<2p('J7J#$6B0g6,%w'\0u..%=:3[oW9SV7'v23_-!:DAJ\7[;-/b)7.#$<)1-S=*w2%ajZj3!:]0*5!;pR9[3V_Rx>2/(=x-W+Y0*0!Vh>*\:57X57bahP7X57%ahP7\O-[XzaST -[XO'_3Q
7Oe7)54#(QmOP63h3:X;<9ZS2ri2'4V'+*7+;'3I)9=p/9/tFrX;<9ZS2ri2'#kv<x.f5<#=-'42,_-!:5P*P!;p29=Uyx+33]Xiv_-XM[4269Quhu m$#';-ibs9H<6('xZ:9Q4h:jst3ju:D6F/_3+:D6Fv_3+:=E*77\D%m[*77Ko-[z
F>)Ci=38:-\K+Q[jH07[y<Bdi3,#o!:lZt%r,]:v2G+zkQ]IL$19k<c$L374 Um0'W)-4:RAJ\7x(C0x;v_jXM[$2G9Q+hu i$.D(cEuh\7*K-'B)7r# ;%a+Zh5I9!1j$#'K-IBS9h<6('X4:)Z(3/X4:)D(3/Xz'_3W+n>d8_3Wu3ahL
)Ko!:lFhXE9U/dH9=5w'\0u..%=:38s-#<2p('e*e#$6B0g6,%w'\0u..%=:3[oW9SV7'v23_-!:DAJ\7[;-/b)7.#$<)1-)$*w2%ajZj3!:]0*)!VhR9[3V_Rx>2/(=x-W+Y0*0!Vhm*\:57X57ba:Zb;WiYe y=JW+3ah$#2/0=ah$\4(36
eO'4V'7W1W>\JS32 t$19K<C$l374#>Q[(J<]z#IH2g+ZKq]il$19K<C$l374 uM0'w)-4:raj\7X(c0X;V_Jxm[$2g9q+H:JI$.d(CeUH\7*k-:bs9R# ;%A+zH5i9!1J$#'k-ibs9J<6('x4:)z((e%)$u'oO) :$#4(39[![m\(39MFY=8
oU38s-)C+=oM:.=5PE9=P/9/TfRxFhHE 9XveCev3:5-u/6*=f9=P/9/TfRxF8\tk mEJ07%(C0x4YB$w'%A:zJ3T:50*p!vH29$ yb+330XI/_Vx>24288D(PE/Y)0.+c9[3/_Rx>2u(=x-WiYeUyx+Um9c3'Yqp(9[fy=# ZK.zy=#97) 0
'\4#>Qe7P5k9(C Y7E#$6b0G6,%W7W/W80s4#lFh07[Y<bDI3,#$6b0G6,%W7=md/%TOcIXlyb$Wi)%M$1D((Euh67[K-/BS9.#TO)%-S=$w2BAszH5!:=6 Y<+i):25pB# ;BA+zH539!1J$u'o<)1-5J#m;3p*7X# 7) 28oGV+) 2>)QPY
3MFhHEo!/lo>X/P)'12G+zkQ]IL$)Ci==2'0eILEsx;<9zs2RI2G+zkQ]IL$)\90B7D'Brwf)%m$uQur9= YX+33]x;/_jX>2$26YqUHU M$.Z(>E/Y\7\5o)V-)$V)*/%288Z(PE/Ys0.+c9c3'9q+H'u2,84;-[128)qp:=gAw#qp:Oe*7[
497W/W'4J'uO1G7$-p:5-U/6*=F9e7)5\) IF_*<RW'\0U..%=:5-U/6*=F9ez>MZ203%+$,qUR9c*5r#$o)1-s=*W'ba:Zh5t:]p*5!;Pr9$uYH+i)0xZ:yQ4h:jst3ju:=6uY<+i)u25pB#m;30*p!-3:D6Fv_3+:=E*77\D%m[*77Ko-[z
F>)Ci=38:-\K+Q[jJ57[y<Bdi3,#o!:lZt%r,]s/H$19k<c$L37[y<Bdi3,#o+o.ujm4up9I*5R#m-'42GyQ+hu i$1z((e/y67*;-'B)7r#t<)/-)$$W+YP*0!Vh>*\:57\5<)V-)$;)*/%2,84K-/Bjs7X57%ahP7\O-[XzaST -[XO'_3Q
7Oe7)54#(QmOP63hcUX;<9ZS2ri2'4V'+*7+;'ypm9=p/9/tFrX;<9ZS2ri2'#kv<x.f5<#=-'42,_-!:5P*P!;p29=Uyx+I)]Xiv_-XM[4269Qih:jm$#';-ibs9H<6('xZ:9Q4h:j)t3ju:D6F/_jXCux4:)d(3/xZ'_3w+N>D8_3wU3AHl
)Ko!:lFhXE9U/dH9Bvw'\0u..%=:38s-#<2p('e*>#$6B0g6,%w'\0u..%=:3[oW9SV7'v23_-!:DAJ\7[;-/b)7.#$<)1-S=*w2%ajZj3!:]0*5!;pR9[3V_Rx>2/(=x-W+Y0*0!Vh>*\:57X57bajZ<5WiYe y=JW+3ah$#2/0=ah$\4(36
eO'4V'7W1W>\JS32%+$19K<C$l374#>Q[(J<]z#I*2g+ZKq]il$19K<C$l374 uM0'w)-4:raj\7X(c0X;V_Jxm[$2g9q+HU I$.d(CeUH\7*k-'b)7R# ;%A+zH5i9!1J$#'k-ibs9H<6('x4:)z(Cevy$u'oO) :$#4(39[![m\(39MFY=8
oU38s-)C+=oM:.=5u)9=P/9/TfRxFhHE 9XveCevP:5-u/6*=f9=P/9/TfRxF8\tk mEJ07%(C0x4YB$w'%A:zJ3T:50*p!;P29$ yb+330XI/_-xm[4288D(PE/Y)0.+c9[3/_Rx>2/(=x-WiYeUyb+4)9c3'Yqp(9[fy=# ZK.zy=#97) 0
'\4#>Qe7P5k9(C Y5I#$6b0G6,%W7W/W80s4#lFh)7[Y<bDI3,#$6b0G6,%W7=md/%TOcIXlyb$Wi)%M$1D((Euh67[K-/B)7.#TO)%-S=$w2BAJzJ3!:=6 Y<+i):25pB# ;BA+zH5i9!1J$u'o<)%-0$#m;3p*7X# 7) 28oGV+) 2>)QPY
3MFhHEo!/lo>X/P)'h2G+zkQ]IL$)Ci==2'0eILE2x;<9zs2RI2G+zkQ]IL$)\90B7D'Brwf)%m$uQur9= YX+33]x;/_jXM[$26YqUHU M$.Z(cEuh\7\5o)V-)$V)*/%288Z(PE/Y)0.+c9c3'9qUHIJ2,84;-[128)qp:=gAw#qp:Oe*7[
497W/W'4J'uO1G7$-,:5-U/6*=F9e7)5\) IF_*<VW'\0U..%=:5-U/6*=F9ez>MZ203%+$,qUR9c*5r#$o)1-s=*W'ba:Zj3t:]p*5!;Pr9$uYB+330xZ:yQ4h:jst3ju:=6uY<+i):25pB#m;30*5!rH:D6Fv_3+:=E*77\D%m[*77Ko-[z
F>)Ci=38:-\K+Q[j)p7[y<Bdi3,#o!:lZt%r,]sUe$19k<c$L37[y<Bdi3,#o+o.ujm4up9I*5R#m-'42GyQ+hu i$1z((eUH67*;-'B)7r#t<)%-s=$W+YP*0!Vh>*\:57\5<)V-)$V)*/%2,84K-'B+97X57%ahP7\O-[XzaST -[XO'_3Q
7Oe7)54#(QmOP63hm[X;<9ZS2ri2'4V'+*7+;'ypc9=p/9/tFrX;<9ZS2ri2'#kv<x.f5<#=-'42,_-!:5P*P!;p29=Uyx+33]Xiv_-XM[4269Quhu m$#';-ibs9H<6('xZ:9Q4h:jst3ju:D6F/_-Xp2x4:)d(3/xZ'_3w+N>D8_3wU3AHl
)Ko!:lFhXE9U/dH9J-w'\0u..%=:38s-#<2p('y7$#$6B0g6,%w'\0u..%=:3[oW9SV7'v23_-!:DAJ\7[;-/b)7.#$<)1-S=*w2%ajZj3!:]0*5!;pR9[3V_Rx>2/(=x-W+Y0*0!Vh>*\:57X57bajZ<5WiYe y=JW+3ah$#2/0=ah$\4(36
eO'4V'7W1W>\JS32u)$19K<C$l374#>Q[(J<]zPU%2g+ZKq]il$19K<C$l374 uM0'w)-4:raj\7X(c0X;V_Jxm[$2g9q+HU I$.d(CeUH\7*k-'b)7R# ;%A+zH5i9!1J$#'k-ibs9H<6('x4:)z(3/x4:)d(3/xZ'_3w+N>D8_3wU3AHl
)Ko!:lFhXE9U/dH9Jvw'\0u..%=:38s-#<2p('y7>#$6B0g6,%w'\0u..%=:3[oW9SV7'v23_-!:DAJ\7[;-/b)7.#$<)1-)$*w2%ajZj3!:]0*)!VhR9[3V_Rx>2/(=x-W+Y0*0!Vhm*\:57X57ba:Zb;WiYe y=JW+3ah$#2/0=ah$\4(36
eO'4V'7W1W>\JS32u+$19K<C$l374#>Q[(J<]zPUu2g+ZKq]il$19K<C$l374 uM0'w)-4:raj\7X(c0X;V_Jxm[$2g9q+HU I$.d(CeUH\7*k-'b)7R# ;%A+zH5i9!1J$#'k-ibs9H<6('x4:)z(3/x4:)d(3/xZ'_3w+N>D8_3wU3AHl
)Ko!:lFhXE9U/dH9J5w'\0u..%=:38s-#<2p('+SH#$6B0g6,%w'\0u..%=:3[oW9SV7'v23_-!:DAJ\7[;-/b)7.#$<)1-S=*w2%ajZj3!:]0*5!;pR9[3V_Rx>2/(=x-W+Y0*0!Vh>*\:57X57bahP7X57%ahP7\O-[XzaST -[XO'_3Q
7Oe7)54#(QmOP63hm$X;<9ZS2ri2'4V'+*7+;'R3P9=p/9/tFrX;<9ZS2ri2'#kv<x.f5<#=-'42,_-!:5P*P!;p29=Uyx+33]Xiv_-XM[4269Quhu m$#';-ibs9H<6('xZ:9Q4h:jst3ju:D6F/_3+:D6Fv_3+:=E*77\D%m[*77Ko-[z
F>)Ci=38:-\K+Q[j)*7[y<Bdi3,#o!:lZt%r,]iUy$19k<c$L37[y<Bdi3,#o+o.ujm4up9I*5R#m-'42GyQ+hu i$1z((eUH67*;-'B)7r#t<)%-s=$W+YP*0!Vh>*\:57\5<)V-)$V)*/%2,84K-[12,84;-[128)qp:=gAw#qp:Oe*7[
497W/W'4J'uO1G7$;,:5-U/6*=F9e7)5\) IF_0juW'\0U..%=:5-U/6*=F9ez>MZ203%+$,qUR9c*5r#$o)1-s=*W'ba:Zj3t:]p*5!;Pr9$uYB+330xZ:yQ4h:jst3ju:=6uY<+i):25pB#m;30*7X#m;3p*7X# 7) 28oGV+) 2>)QPY
3MFhHEo!/lo>X/P):12G+zkQ]IL$)Ci==2'0eI4Msx;<9zs2RI2G+zkQ]IL$)\90B7D'Brwf)%m$uQur9= YX+33]x;/_jXM[$26YqUHU M$.Z(cEuh\7\5o)V-)$V)*/%288Z(PE/Y)0.+c9c3'9qp(9c3'Yqp(9[fy=# ZK.zy=#97) 0
'\4#>Qe7P5k9(C Y)=#$6b0G6,%W7W/W80s4#l/Y57[Y<bDI3,#$6b0G6,%W7=md/%TOcIXlyb$Wi)%M$1D((Euh67[K-/B)7.#TO)%-S=$w2BAJzJ3!:=6 Y<+i):25pB# ;BA+zH5i9!1J$u'o<) :$u'oO) :$#4(39[![m\(39MFY=8
oU38s-)C+=oM:.=5iC9=P/9/TfRxFhHE 9XveCH5i:5-u/6*=f9=P/9/TfRxF8\tk mEJ07%(C0x4YB$w'%A:zJ3T:50*p!;P29$ yb+330XI/_-xm[4288D(PE/Y)0.+c9[3/_Rx>2/(=x-WiYeUy=JWiYe y=JW+3ah$#2/0=ah$\4(36
eO'4V'7W1W>\JS32/)$19K<C$l374#>Q[(J<]z>2J2g+ZKq]il$19K<C$l374 uM0'w)-4:raj\7X(c0X;V_Jxm[$2g9q+HU I$.d(CeUH\7*k-'b)7R# ;%A+zH5i9!1J$#'k-ibs9H<6('x4:)z(3/x4:)d(3/xZ'_3w+N>D8_3wU3AHl
)Ko!:lFhXE9U/dH9Hvw'\0u..%=:38s-#<2p('s9>#$6B0g6,%w'\0u..%=:3[oW9SV7'v23_-!:DAJ\7[;-/b)7.#$<)1-S=*w2%ajZj3!:]0*5!;pR9[3V_Rx>2/(=x-W+Y0*0!Vh>*\:57X57bahP7X57%ahP7\O-[XzaST -[XO'_3Q
7Oe7)54#(QmOP63h>IX;<9ZS2ri2'4V'+*7+;'Vj(9=p/9/tFrX;<9ZS2ri2'#kv<x.f5<#=-'42,_-!:5P*P!;p29=Uyx+33]Xiv_-XM[4269Quhu m$#';-ibs9H<6('xZ:9Q4h:jst3ju:D6F/_3+:D6Fv_3+:=E*77\D%m[*77Ko-[z
F>)Ci=38:-\K+Q[js97[y<Bdi3,#o!:lZt%r,]:*J$19k<c$L37[y<Bdi3,#o+o.ujm4up9I*5R#m-'42GyQ+hu i$1z((eUH67*;-'B)7r#t<)%-s=$W+YP*0!Vh>*\:57\5<)V-)$V)*/%2,84K-[12,84;-[128)qp:=gAw#qp:Oe*7[
497W/W'4J'uO1G7$Vj:5-U/6*=F9e7)5\) IF_)IVW'\0U..%=:5-U/6*=F9ez>MZ203%+$,qUR9c*5r#$o)1-s=*W'ba:Zj3t:]p*5!;Pr9$uYB+330xZ:yQ4h:jst3ju:=6uY<+i):25pB#m;30*7X#m;3p*7X# 7) 28oGV+) 2>)QPY
3MFhHEo!/lo>X/P):h2G+zkQ]IL$)Ci==2'0eI3W'x;<9zs2RI2G+zkQ]IL$)\90B7D'Brwf)%m$uQur9= YX+33]x;/_jXM[$26YqUHU M$.Z(cEuh\7\5o)V-)$V)*/%288Z(PE/Y)0.+c9c3'9qp(9c3'Yqp(9[fy=# ZK.zy=#97) 0
'\4#>Qe7P5k9(C Y)E#$6b0G6,%W7W/W80s4#luts7[Y<bDI3,#$6b0G6,%W7=md/%TOcIXlyb$Wi)%M$1D((Euh67[K-/B)7.#TO)%-S=$w2BAJzJ3!:=6 Y<+i):25pB# ;BA+zH5i9!1J$u'o<) :$u'oO) :$#4(39[![m\(39MFY=8
oU38s-)C+=oM:.=54(9=P/9/TfRxFhHE 9XveCJUi:5-u/6*=f9=P/9/TfRxF8\tk mEJ07%(C0x4YB$w'%A:zJ3T:50*p!;P29$ yb+330XI/_-xm[4288D(PE/Y)0.+c9[3/_Rx>2/(=x-WiYeUy=JWiYe y=JW+3ah$#2/0=ah$\4(36
eO'4V'7W1W>\JS32Vh$19K<C$l374#>Q[(J<]zm$V2g+ZKq]il$19K<C$l374 uM0'w)-4:raj\7X(c0X;V_Jxm[$2g9q+HU I$.d(CeUH\7*k-'b)7R# ;%A+zH5i9!1J$#'k-ibs9H<6('x4:)z(3/x4:)d(3/xZ'_3w+N>D8_3wU3AHl
)Ko!:lFhXE9U/dH9<-w'\0u..%=:38s-#<2p(')($#$6B0g6,%w'\0u..%=:3[oW9SV7'v23_-!:DAJ\7[;-/b)7.#$<)1-S=*w2%ajZj3!:]0*5!;pR9[3V_Rx>2/(=x-W+Y0*0!Vh>*\:57X57bahP7X57%ahP7\O-[XzaST -[XO'_3Q
7Oe7)54#(QmOP63hPUX;<9ZS2ri2'4V'+*7+;';jw9=p/9/tFrX;<9ZS2ri2'#kv<x.f5<#=-'42,_-!:5P*P!;p29=Uyx+33]Xiv_-XM[4269Quhu m$#';-ibs9H<6('xZ:9Q4h:jst3ju:D6F/_3+:D6Fv_3+:=E*77\D%m[*77Ko-[z
F>)Ci=38:-\K+Q[j+)7[y<Bdi3,#o!:lZt%r,]u*V$19k<c$L37[y<Bdi3,#o+o.ujm4up9I*5R#m-'42GyQ+hu i$1z((eUH67*;-'B)7r#t<)%-s=$W+YP*0!Vh>*\:57\5<)V-)$V)*/%2,84K-[12,84;-[128)qp:=gAw#qp:Oe*7[
497W/W'4J'uO1G7$R4:5-U/6*=F9e7)5\) IF_5E5W'\0U..%=:5-U/6*=F9ez>MZ203%+$,qUR9c*5r#$o)1-s=*W'ba:Zj3t:]p*5!;Pr9$uYB+330xZ:yQ4h:jst3ju:=6uY<+i):25pB#m;30*7X#m;3p*7X# 7) 28oGV+) 2>)QPY
3MFhHEo!/lo>X/P)ij2G+zkQ]IL$)Ci==2'0eIu#sx;<9zs2RI2G+zkQ]IL$)\90B7D'Brwf)%m$uQur9= YX+33]x;/_jXM[$26YqUHU M$.Z(cEuh\7\5o)V-)$V)*/%288Z(PE/Y)0.+c9c3'9qp(9c3'Yqp(9[fy=# ZK.zy=#97) 0
'\4#>Qe7P5k9(C Y0I#$6b0G6,%W7W/W80s4#lu:P7[Y<bDI3,#$6b0G6,%W7=md/%TOcIXlyb$Wi)%M$1D((Euh67[K-/B)7.#TO)%-S=$w2BAJzJ3!:=6 Y<+i):25pB# ;BA+zH5i9!1J$u'o<) :$u'oO) :$#4(39[![m\(39MFY=8
oU38s-)C+=oM:.=54E9=P/9/TfRxFhHE 9XveCJju:5-u/6*=f9=P/9/TfRxF8\tk mEJ07%(C0x4YB$w'%A:zJ3T:50*p!;P29$ yb+330XI/_-xm[4288D(PE/Y)0.+c9[3/_Rx>2/(=x-WiYeUy=JWiYe y=JW+3ah$#2/0=ah$\4(36
eO'4V'7W1W>\JS32VE$19K<C$l374#>Q[(J<]zm//2g+ZKq]il$19K<C$l374 uM0'w)-4:raj\7X(c0X;V_Jxm[$2g9q+HU I$.d(CeUH\7*k-'b)7R# ;%A+zH5i9!1J$#'k-ibs9H<6('x4:)z(3/x4:)d(3/xZ'_3w+N>D8_3wU3AHl
)Ko!:lFhXE9U/dH9$jw'\0u..%=:38s-#<2p(')p$#$6B0g6,%w'\0u..%=:3[oW9SV7'v23_-!:DAJ\7[;-/b)7.#$<)1-S=*w2%ajZj3!:]0*5!;pR9[3V_Rx>2/(=x-W+Y0*0!Vh>*\:57X57bahP7X57%ahP7\O-[XzaST -[XO'_3Q
7Oe7)54#(QmOP63h)[X;<9ZS2ri2'4V'+*7+;';+e9=p/9/tFrX;<9ZS2ri2'#kv<x.f5<#=-'42,_-!:5P*P!;p29=Uyx+33]Xiv_-XM[4269Quhu m$#';-ibs9H<6('xZ:9Q4h:jst3ju:D6F/_3+:D6Fv_3+:=E*77\D%m[*77Ko-[z
F>)Ci=38:-\K+Q[jy57[y<Bdi3,#o!:lZt%r,]'1s$19k<c$L37[y<Bdi3,#o+o.ujm4up9I*5R#m-'42GyQ+hu i$1z((eUH67*;-'B)7r#t<)%-s=$W+YP*0!Vh>*\:57\5<)V-)$V)*/%2,84K-[12,84;-[128)qp:=gAw#qp:Oe*7[
497W/W'4J'uO1G7$53:5-U/6*=F9e7)5\) IF_5xRW'\0U..%=:5-U/6*=F9ez>MZ203%+$,qUR9c*5r#$o)1-s=*W'ba:Zj3t:]p*5!;Pr9$uYB+330xZ:yQ4h:jst3ju:=6uY<+i):25pB#m;30*7X#m;3p*7X# 7) 28oGV+) 2>)QPY
3MFhHEo!/lo>X/P)2/2G+zkQ]IL$)Ci==2'0eIu(2x;<9zs2RI2G+zkQ]IL$)\90B7D'Brwf)%m$uQur9= YX+33]x;/_jXM[$26YqUHU M$.Z(cEuh\7\5o)V-)$V)*/%288Z(PE/Y)0.+c9c3'9qp(9c3'Yqp(9[fy=# ZK.zy=#97) 0
'\4#>Qe7P5k9(C Y9<#$6b0G6,%W7W/W80s4#l%:(7[Y<bDI3,#$6b0G6,%W7=md/%TOcIXlyb$Wi)%M$1D((Euh67[K-/B)7.#TO)%-S=$w2BAJzJ3!:=6 Y<+i):25pB# ;BA+zH5i9!1J$u'o<) :$u'oO) :$#4(39[![m\(39MFY=8
oU38s-)C+=oM:.=5H)9=P/9/TfRxFhHE 9XveCBjL:5-u/6*=f9=P/9/TfRxF8\tk mEJ07%(C0x4YB$w'%A:zJ3T:50*p!;P29$ yb+330XI/_-xm[4288D(PE/Y)0.+c9[3/_Rx>2/(=x-WiYeUy=JWiYe y=JW+3ah$#2/0=ah$\4(36
eO'4V'7W1W>\JS32Jt$19K<C$l374#>Q[(J<]zc/F2g+ZKq]il$19K<C$l374 uM0'w)-4:raj\7X(c0X;V_Jxm[$2g9q+HU I$.d(CeUH\7*k-'b)7R# ;%A+zH5i9!1J$#'k-ibs9H<6('x4:)z(3/x4:)d(3/xZ'_3w+N>D8_3wU3AHl
)Ko!:lFhXE9U/dH9$Yw'\0u..%=:38s-#<2p('J7X#$6B0g6,%w'\0u..%=:3[oW9SV7'v23_-!:DAJ\7[;-/b)7.#$<)1-S=*w2%ajZj3!:]0*5!;pR9[3V_Rx>2/(=x-W+Y0*0!Vh>*\:57X57bahP7X57%ahP7\O-[XzaST -[XO'_3Q
7Oe7)54#(QmOP63h)(X;<9ZS2ri2'4V'+*7+;'3Ue9=p/9/tFrX;<9ZS2ri2'#kv<x.f5<#=-'42,_-!:5P*P!;p29=Uyx+33]Xiv_-XM[4269Quhu m$#';-ibs9H<6('xZ:9Q4h:jst3ju:D6F/_3+:D6Fv_3+:=E*77\D%m[*77Ko-[z
F>)Ci=38:-\K+Q[jTp7[y<Bdi3,#o!:lZt%r,][U:$19k<c$L37[y<Bdi3,#o+o.ujm4up9I*5R#m-'42GyQ+hu i$1z((eUH67*;-'B)7r#t<)%-s=$W+YP*0!Vh>*\:57\5<)V-)$V)*/%2,84K-[12,84;-[128)qp:=gAw#qp:Oe*7[
497W/W'4J'uO1G7$up:5-U/6*=F9e7)5\) IF_7j-W'\0U..%=:5-U/6*=F9ez>MZ203%+$,qUR9c*5r#$o)1-s=*W'ba:Zj3t:]p*5!;Pr9$uYB+330xZ:yQ4h:jst3ju:=6uY<+i):25pB#m;30*7X#m;3p*7X# 7) 28oGV+) 2>)QPY
3MFhHEo!/lo>X/P)$%2G+zkQ]IL$)Ci==2'0eIPM:x;<9zs2RI2G+zkQ]IL$)\90B7D'Brwf)%m$uQur9= YX+33]x;/_jXM[$26YqUHU M$.Z(cEuh\7\5o)V-)$V)*/%288Z(PE/Y)0.+c9c3'9qp(9c3'Yqp(9[fy=# ZK.zy=#97) 0
'\4#>Qe7P5k9(C Y(j#$6b0G6,%W7W/W80s4#l )97[Y<bDI3,#$6b0G6,%W7=md/%TOcIXlyb$Wi)%M$1D((Euh67[K-/B)7.#TO)%-S=$w2BAJzJ3!:=6 Y<+i):25pB# ;BA+zH5i9!1J$u'o<) :$u'oO) :$#4(39[![m\(39MFY=8
oU38s-)C+=oM:.=5J>9=P/9/TfRxFhHE 9XveC=;L:5-u/6*=f9=P/9/TfRxF8\tk mEJ07%(C0x4YB$w'%A:zJ3T:50*p!;P29$ yb+330XI/_-xm[4288D(PE/Y)0.+c9[3/_Rx>2/(=x-WiYeUy=JWiYe y=JW+3ah$#2/0=ah$\4(36
eO'4V'7W1W>\JS32*+$19K<C$l374#>Q[(J<]z3:12g+ZKq]il$19K<C$l374 uM0'w)-4:raj\7X(c0X;V_Jxm[$2g9q+HU I$.d(CeUH\7*k-'b)7R# ;%A+zH5i9!1J$#'k-ibs9H<6('x4:)z(3/x4:)d(3/xZ'_3w+N>D8_3wU3AHl
)Ko!:lFhXE9U/dH9i5w'\0u..%=:38s-#<2p(')97[y<Bdi3,#$6B0g6,%w7=MD/%toCixLYB$wI)%m$1d((eUH67[k-/b)7.#to)%-s=$W2bajZj3!:=6 y<+I):25Pb# ;ba+Zh5I9!1j$U'O<) :$U'Oo) :$#4(39[![M\(39mfy=8
oU38s-)C+=oM:.=5JW9=P/9/TfRxFhHE 9XveCJUw'\0u..%=:5-u/6*=f9EZ>mz203%+$,Qur9C*5R#$O)1-S=*w'BA:zJ3T:]P*5!;pR9$Uyb+330Xz:Yq4H:JST3JU:=6Uy<+I):25Pb#M;30*7x#M;3P*7x# 7) 28Ogv+) 2>)qpy
3MFhHEo!/lo>X/P)$h2G+zkQ]IL$)Ci==2'0eI3E9=P/9/TfRx;<9zs2RI2'#KV<X.F5<#=-'42,_-!:5p*p!;P29=uYX+33]xIV_-xm[4269qUHU M$#';-IBS9h<6('Xz:9q4H:JST3JU:d6f/_3+:d6fV_3+:=e*77\d%M[*77kO-[Z
F>)Ci=38:-\K+Q[jT;7[y<Bdi3,#o!:lZt%r,]uf2G+zkQ]IL$19k<c$L374 Um0'W)-4:RAJ\7x(C0x;v_jXM[$2G9Q+hu i$.D(cEuh\7*K-'B)7r# ;%a+Zh5I9!1j$#'K-IBS9h<6('X4:)Z(3/X4:)D(3/Xz'_3W+n>d8_3Wu3ahL