.GLOBAL gnd! gnd
************************************
** Library name: rnr_gtx_ade
** Cell name: gtx_pkg_model
** View name: schematic
************************************
.subckt gtx_pkg_model AVSS padn padp pinm pinp
.prot FREELIB
%[XIgY\W'\0U$Sq/+6
>:$.[;29=p/9#/-K$0
[8-h:]8z67[Y<bXAyS*Q
%:XIH#kW'\0U$Sq/+6
i35<# 9x :$.c 29i*6,8
=(9[(j=-w2w[o$,Q f6
6j)7*$o]XzT%3+:Ya36[
'+:]= 87\) [%2:_' y
e4Z68t2Y
.ends gtx_pkg_model
