** End of subcircuit definition.
************************************
** Library name: XI_MacrosLib
** Cell name: xi_inv_mlvtxxx
** View name: schematic
************************************
.subckt xi_inv_mlvtxxx A Y psup nsup
.prot FREELIB
H]=3g\#M+)123#q+:=_78O<5<) 2,.q+:r$*P7*[!=g(:9qpy
3[H$2#$:=0m67\kr]xZ>mz9f\72,_x :RAL87\o-=_78o<5<94 Y33wrBAHl
)*P:<x;$.z!29$u\.#TUm0o3+SwI)Ci$,Q=29[FY.:#+N23/7$;-! 2\9QPY
e4Z68t2Y
.ends xi_inv_mlvtxxx
