** End of subcircuit definition.
************************************
** Library name: XI_MacrosLib
** Cell name: xi_nand2_mlvtxxx
** View name: schematic
************************************
.subckt xi_nand2_mlvtxxx A B Y psup nsup
.prot FREELIB
H]=3g\#M+)123#q+:=_78O<5<) 2,.q+:r$*P7*[!=g(:9qpy
3[H$2#$:=2'5J# <0$28\tkUR-'$uQm+9I*3## 7)[\h#2);Bxmv_jwrBAHl
)\u:=2'5J#F:=0m67\kr]xZ>mz9f\72,_x :RAL87\o-=_78o<5<94 Y=#!<)10
'.-W893269$t:]0M67*90bml<%#M-d$23_%t:=e*6dc Z*6U$rD(394Uyx8
o2[x#$1#T<0$269$T:]MD/\%y 9C*,.#=-R$28)QTtw[!t8zwr%AH$Rz((6
BM8.'v 6
.ends xi_nand2_mlvtxxx
