** End of subcircuit definition.
************************************
** Library name: rnr_spice_sanjay
** Cell name: generic_load
** View name: schematic
************************************
.subckt generic_load rx tx vterm
.prot FREELIB
sK6f[1*W;3Xp/9#/-[1IL
%CP>ixZt%3H:\0u$84w6B02+XQ4(97 Y$j+h/1i$#%((e%+l
8z);w2u$%4w+*7H97'(3e1:p\8
c;XE2<%<5U9[(j=5w;)v:l
8'o:\7(:\#5796*0X8
Xr=$3W%8
.ends generic_load
