** End of subcircuit definition.
************************************
** Library name: rnr_spice_sanjay
** Cell name: iob_outblk_cz_sim_inp
** View name: schematic
************************************
.subckt iob_outblk_cz_sim_inp lvds<0> pad refio cbnet<35> cbnet<34>
+cbnet<33> cbnet<32> cbnet<31> cbnet<30> cbnet<29> cbnet<28>
+cbnet<27> cbnet<26> cbnet<25> cbnet<24> cbnet<23> cbnet<22>
+cbnet<21> cbnet<20> cbnet<19> cbnet<18> cbnet<17> cbnet<16>
+cbnet<15> cbnet<14> cbnet<13> cbnet<12> cbnet<11> cbnet<10>
+cbnet<9> cbnet<8> cbnet<7> cbnet<6> cbnet<5> cbnet<4> cbnet<3>
+cbnet<2> cbnet<1> cbnet<0> cfg_spd extest ff_b fst_cfg_b fttlo
+por_b_vcco ts_b vccaux_loc vcco_loc por_b_vccaux tsb_s<0> pte_rcfg
+cnnd<13> cnnd<12> cnnd<11> cnnd<10> cnnd<9> cnnd<8> cnnd<7>
+cnnd<6> cnnd<5> cnnd<4> cnnd<3> cnnd<2> cnnd<1> cnnd<0> cnpd<19>
+cnpd<18> cnpd<17> cnpd<16> cnpd<15> cnpd<14> cnpd<13> cnpd<12>
+cnpd<11> cnpd<10> cnpd<9> cnpd<8> cnpd<7> cnpd<6> cnpd<5> cnpd<4>
+cnpd<3> cnpd<2> cnpd<1> cnpd<0>
.prot FREELIB
7KkO\)JW+*7S(WJE:=2')ImpV9[(Jhu1c+XA8%%>q-Rj%7g  rkGXW3E:K['3n/f_/)0
o#<2P/XzT%V,:W./.S\2F_DO\)/Ky
38D\%0!tc>Xp7G +%rHSP#/+=pc7B1w%=[ #=3e:k[Zvw3+v9>Z8yM,v9>Z8yMLv6
:A8#D1w+XA8#D1)+XA8#D1P+XA8#D1>+XA8#D1m+XA8#D1c+XA8#D13+XA8#D1(+Z
$[#*;_[fq$s\TOH V%7G 2%rH(P#/+]pc7$1w%=$ #=re:k[ivw3iv9>Z6yMPM+z
$[#*;_[%q$s\TOH H%7G 2%rHpP#/+]pc;P#/+]pc*P#/+]pc(P#/+]pc9P#/+]pc0P8
_%=$ #H1w%=$ #J1w%=$ #B1w%=$ #=1w%=$ #X1wOw0;.##;!B3g87d#<kdZl
Td#<%dZ$yCk9c[2v4z:Q=x h9[s29p7/-/T:%8u[6*wOw0 ..#;!B2g67:[Q-x!j,jq
$n7l7722F'Xp/9#Y<bXp/9#Y<bXp[S[!7Cid[79/%MDlwS#Yo%XpVY# <r24P7\KF*chL
T\kf*CJ$#z=9DU289%)I:xZ/,<mp9$;v7*;9R0(369/%54F$.d)fB2L.+G/06
:IV0%K9r3G<Sg$R3XIV0%K9r3G<Sgv:]ip39<=q\>Agr4W2r-l/0%fq\>Aw[
at0YD/.+g/'0e26M'S[C-A[M#t<r24P7*KF*ch$.Z=9d%269%)iUXI/,<M>9$U30X4y
8$u30xsfmCP[s# 9Xv:$#<2>(x'/60w B3g/wje:w./.m$2[0_g[N/k!odD:42q
7K_!.9*;(9$U30Xp:]0lTU-W+bi(,=# <r2457gf+*7C7<1W%-[(JW3IV9>/80s13U)0
oS0 9xRh5p#/[=2'#=3E:K3zT%mp(+XAX#<2_()2[-\) hHQ$S0 9xRt%7gf+*7C9p8
_%-[(jwre:k3Zt%Miv9>/80S1M+xax#<2_')2[-\) H q$s0 9Xr:%7G[zc0iv[
a)7x2UJ7:K C>\a60W6K>;\)/=0KXIw8/fq\>Agr4W+bi(,j#t<r24s7\KF*c:L
T*kf*C:$oS=(9G'3=#T<R24)7\kf*Cs$.z=9Dv289%)Iix!j,-w2BI(,6%VI\>al
T*29c6a o##0-da o/k2%z
F[D2s!m0'vX#;!B=g87d#<5di$yCk[c[2v4zFQ]x h9Gs+9p7/s/T:%8uv6\wOw0 ..8
_Ow0(.##;!BOg87%yOBr:%7GF+*7cSH1w%-[(jw;3v9>/80S1M')2[-\) HUH%[
a/[=2'#jJE:K3zT%mU#+XAX#<2_'HQ$S0 9xRj(p#/[=2'#b5E:K3zT%mUP+Z
$[-\) H%s%7GF+*7c5J1w%-[(jw-uv9>/80S1C[)2[-\) H%:%7GF+*7c7e1q
$K3zT%mpe+XAX#<2_[*Q$S0 9xRh9p#[ xid$S\2F_D/#b1W%=7l+6013+Z
$[#S=jc3cpP#59J8D$yCk9c$2 9Ss%JGgx7*29c6a o#y%k=m'6%V%9$D:60s6k>;\)8
_2R-L/0%s6k>;\)#Tf\Iut,0s6k>D$+G/0cID[7*V;c3g<sGV:]p(39<=Q\>aGR4q
$]P(39<=[C-A[1$O:]P(39<=q\>Aw7*;9r0(3-/Y%K.2HM0S%jgGHMZ2oC>xL
!$ 2y.'l
.ends iob_outblk_cz_sim_inp
