** End of subcircuit definition.
************************************
** Library name: rnr_iob
** Cell name: iob_cntlz_mux_s
** View name: schematic
************************************
.subckt iob_cntlz_mux_s cntlz<2> cntlz<1> cntlz<0> cntlz_b<2> cntlz_b<1>
+cntlz_b<0> term term_b
.prot FREELIB
7W v(7s);OX'T8kS[9e7.4\Y:d[*P!V+(9izyx++w/Xz 4\d9Y0*77Xt-/BSPx8
_f]A:zXU+:]_78o<5<) 0
'43,(9>zJ,BS[h%Q$S\2F_Rj%74#qW[p$U\((E%:P7% -/B:(x# TW[!T8Z(36
:46_Jxc/123.q+H/*:$.:#+n23/_3Q
7W E)7g  rkGXW3E:K['3nmpV9e7.4\Y:d[*P!-+(9izyx++w/Xz 4\d9Y0*7[
aM2)1-5xJWF]a:Zxu+:]_78O<5<) 0
'43,P9>zJ,BS[h1Q$S\2F_R:%74#qW[p$U\((E%:P7% -/B:(x# TW[!T8Z(36
:46_Jxc/123.q+H/*:$.:#+n23/_3Q
7W v;7g  rkCPp#/+xix#=1W%=7l+601c+XzT%V3:38G81\;m9cIyx+I(/Xl6_Jx($10
o.:#+n23/_3Wi=a:ZhJ+:r[*P!Jj(9[\H#2);bahL
)CP#uxa8%%>_/)2[#S=jH%q$s\2f_d/#=1w+*7s(74#Q==ZvJ#m2)1-)Xjwf]A:zXU+Y
8$\h#2);BAH$u\((e/:p7% -/b:(X# tw[!t8z(36
e70=# 9xV+$#<2>$XzT%V3:x23>74#q==zVj#M2)1-)xJWF]a:Zxu+:]_78O<5<) 0
oU\((EH:P7% -/B:(x# TW[!T8Z(36
e77b5W%=7l+601(+XA8%%>_')2[#s=JC3C7p# 9xV+$)cS+5[ s7Xt-/BSPx#=2)1-PIJQ
$]_78O<5<) 2,#q+H:1:$,\((E1tP7\[!=g(:9qpy
e4Z68t2Y
.ends iob_cntlz_mux_s
