** End of subcircuit definition.
************************************
** Library name: rnr_spice_sanjay
** Cell name: iob_obc_pred_n_es
** View name: schematic
************************************
.subckt iob_obc_pred_n_es gtl0 gtl1 gtl2 loc_vss loc_vccaux nslew0 nslew1
+nslew2 nslew3 nslew4 nslew5 opn opn_del opni opni_del
.prot FREELIB
7O$'9x# 9x E57%v%C-A[1$O:r.A.+g/'0e23MgS6K>;\)#tuM0'w)-4:dah$,q+H'/2\Yq+:00*P[
492xJh$#<2c'123MgS6K>;\)#=0KDp[S[!79id[69/%54f$.kv<x.f5<#M-[Xlyx+U>94 yx#!<)10
'\*2>'XzT%-U(9id[69/%54f$,T/q\>Agr4WFM>G<Sg$R3XI>MZ203%+$Uqp:ra:ZbVWR%a:$rZ((6
eO6%V3:=2'7E-WFM>G<Sg$R3XlwS/Y%K=M'7%v%C-A[1$O:]md/%TOcIX4y=#=-/Bj)7$;-/XM/_JQ
7O$')h# 9x E57%v%C-A[1$O:r.A.+g/'0e23MgS6K>;\)#tuM0'w)-4:dah$,q+H2%2\Yq+:00*P[
492x/+$#<23(%23MgS6K>;\)# 9x S77%v%C-A[1$O:]md/%TOcIX4y=#=-/BY57$;-/XM/_JQ
7O$')$# 9x%jP7%v%C-A[1$O:r.A.+g/'0e23MgS6K>;\)#tuM0'w)-4:dah$,q+H2%2\Yq+:00*P[
492x/t$#<23:H23MgS6K>;\)#=0KDp[S[!79id[69/%54f$.kv<x.f5<#M-[Xlyx+hc94 yx#!<)10
'\*2>SXzT%3,c9id[69/%54f$,T/q\>Agr4WFM>G<Sg$R3XI>MZ203%+$Uqp:ra:ZbVWR%a:$rZ((6
eO6%V,:=2'7E-WFM>G<Sg$R3XlwS/Y%K=M'7%v%C-A[1$O:]md/%TOcIX4y=+Ue9i*P!-I:0P*P7$K-/Z
F>.S4(9[(jB-+:R.a.+G/'0E23mGs6k>;\)#=0kdP[s[!79$oW9SV7'v2,_3wf)1-)>#!O)12\9Q+Y
3Mij<3w+*7H;B#=0kdP[s[!79ID[69/%54F$,t/Q\>aGR4w2o.ujm4up9C*77%((e/V$Rd((94uYX8
oU]7+57\) '%:$,t/Q\>aGR4wfm>g<sG$r3xLWs/y%k=m'7*90B7D'BrwI) 23_jXC:xmv_jwrBA:l
)KT iU280SuC/xLWs/y%k=m'7%V%c-a[1$o:R.a.+G/'0E26\tk mEJ07x(3e%V$,Q+h'/2\yQ+:00*p[
492xVS$#<23: 23MgS6K>;\)#=0KDp[S[!79id[69/%54f$.kv<x.f5<#M-[Xlyx+hc94 yx#!<)10
'\*2PIXzT%-U(9id[69/%54f$,T/q\>Agr4WFM>G<Sg$R3XI>MZ203%+$Uqp:ra:ZbVWR%a:$rZ((6
eO6%Rh:=2'5bJWFM>G<Sg$R3XlwS/Y%K=M'7%v%C-A[1$O:]md/%TOcIX4y=#=-/BY57$;-/XM/_JQ
7O$'0I# 9x E57%v%C-A[1$O:r.A.+g/'0e23MgS6K>;\)#tuM0'w)-4:dah$,q+H'/2\Yq+:00*P[
492xVv$#<23(%23MgS6K>;\)#=0KDp[S[!79id[69/%54f$.kv<x.f5<#M-[Xlyx+hc94 yx#!<)10
'\*2P(XzT%-U(9id[69/%54f$#<23:H23MgS6K>;\)#tuM0'w)-4:dah$,q+H2%2\Yq+:00*P[
492x v$#<2c'1289%)iUXlwS/Y%K=M'7%v%C-A[1$O:]md/%TOcIX4y=+4m9i*P!-I:0P*P7$K-/Z
F6=UH:=2'7e-wfm>g<9zwfm>g<sG$r3xLWs/y%k=m'7*90B7D'BrwI) -7J#=-/bJ)7$;-/xm/_jq
7O$'*7Tt+CP(37Tt+WD T,# 9x%jP7%v%C-A[1$O:]md/%TOcIX4y=+,c9i*P!-I:=e*07$;-/XM/_JQ
7O$'7j# 9x E57\KF*ch$,T/q\>Agr4WFM>G<Sg$R3XI>MZ203%+$Uqp:ra:Z$-WR%a:$rZ((6
eO6%JW+*7h;b# <r24P7\) 'Vj$,T/q\>Agr4W2O.UJM4UP9c*77%((EJj$rD((94Uyx8
oU]7J77\) '%:$,t/Q\>aGR4wfm>g<sG$r3xLWs/y%k=m'7*90B7D'BrwI) 23_jX)'xmv_jwrBA:l
)KT [v280SuW$xZ/,<m(9ID[69/%54F$,t/Q\>aGR4w2o.ujm4up9C*77%((ejJ$Rd((94uYX8
o2[*J$#<23(%289%)I:xLWs/y%k=m'7%V%c-a[1$o:]MD/%toCix4Y=+4M9I*p!-i:=E*57$;-! 2\9QPY
3$e$#<23(%289%)IixLWs/y%k=m'7%V%c-a[1$o:]MD/%toCix4YJ+LM9I*p!-i:0p*p7$k-/z
F>.SPW9[(jB-+:=0Ltu-wfm>g<sG$r3xLWs/y%k=m'7*90B7D'BrwI) -0J#=-/bs*7$;-/xm/_jq
7O$'7h# 9x E57\KF*cj$,T/q\>Agr4WFM>G<Sg$R3XI>MZ203%+$UqpHIu23_Jx>SXMV_JWRba:L
)KT (xZt%-u(9ID[69k<9ID[69/%54F$,t/Q\>aGR4w2o.ujm4up9C*7!jL:RA:zBvwr%A:$Rz((6
eO6%-+:=2'5bJW+bi(,<#=0KDp[S[!79id[69/%54f$.kv<x.f5<#M-UBvs7%((E%S$rD((94Uyx8
o2' y$#<2Ci%289%)I/xLWs/y%k=m'7%V%c-a[1$o:]MD/%toCix4Y=#=-/by57$;-/xm/_jq
7O$'7E# 9x%jP7\KF*cS$,T/q\>Agr4WFM>G<Sg$R3XI>MZ203%+$UqpHIu23_Jxc:Xz'_-WR%a577$K-[Z
F>.SP)9[(jB-+:=0Ltu3wfm>g<sG$r3xLWs/y%k=m'7*90B7D'BrwI) 23_jX)'xmv_jwrBA:l
)KT [12W.\w0][7$#<23(%23mGs6k>;\)#TUm0'W)-4:DAHze-wf)1-5H# 7)v2\yQ+:00*p[
492x j$#<23(%289%)iUXlwS/Y%K=M'7%v%C-A[1$O:]md/%TOcIX4y=+4m9i*P!-I:0P*P7$K-/Z
F>.SP39[(j=]u:R.a.+G/'0E23mGs6k>;\)#=0kdP[s[!79$oW9SV7'v2,_3wf)1-9B#!O)12\9Q+Y
3Mij=# 9X%Jp7\kf*C:$#<2C$*23mGs6k>;\)#TUm0'W)-4:DAH$,Q+h2%2\yQ+:00*p[
4 (9[(Jb]j:n7l77%v%C-U/7%v%C-U/7\90b7d'bRWi) -0j#=-/Bj)7$;-/XM/_JQ
7= Y57\) 'Ft$,T/q\>Agr4WFM>G<9ZWFM>G<9ZW+O.UJM4UP9c*7!3h:ra:ZhyWR%a:$rZ((6
ez7j-W0][2w.\#:=2'5EuWFM>G<9ZW+O.UJM4UP9c*5!R4:ra:ZbVW+3aj$rD(*[XM/_3Q
7O['s7\) U1E$Os=39id[69K<9id[69K<9[Ow9sv7'V2,_3x#[Xlyx+U>94 yx#!<)10
'\\2)9[(JjJ,:r.A.+ZK:r.A.+ZK:r.A.+ZK:=md/%TOcIX4yx+l:ra:ZI-WR%a:$rZ((6
ez5xyW+*7j;I#=0KDp/9#=0KDp/9#=0KDp/9# uM0'w)-4:da:Z>#=-/BY97$;-/XM/_JQ
7O['57\) U1E$Os=(9id[69K<9id[69K<9[Ow9sv7'V2,_3x#[Xlyx+Ie94 yx#!<)10
'\\2(9[(Jb]j:n7l57%v%C-U/7%v%C-U/7\90b7d'bRWi)%-*7%((E%S$rD((94Uyx8
o+[*+$#<2C(*2A%%+:R.a.+zk:R.a.+zk:=MD/%toCix4Y=+4M9I*p!vL:0p*p7$k-/z
F>#SP:m$Z.y<=:m$Zh7\) u1e$,t/Q\0u$#KV<X.F5<#m-ubH;7%((e%s$#4(C94 Y33wrBAHl
)K  :xZt%;+#9G'3B#=0kdP/9#=0kdP/9# Um0'W)-4:DA)z<3wf)1-5H#!O)12\9Q+Y
3MZj<# 9XU:;7%V%c-a[1$o:R.a.+zk:R.a.+zk:=MD/%toCix4Y=++W9I*p!vL:0p*p7$k-/z
-\#*50Xz
.ends iob_obc_pred_n_es
