** End of subcircuit definition.
************************************
** Library name: rnr_spice_sanjay
** Cell name: iob_outbuf_cz_sim_orig
** View name: schematic
************************************
.subckt iob_outbuf_cz_sim_orig cnnd<13> cnnd<12> cnnd<11> cnnd<10> cnnd<9>
+cnnd<8> cnnd<7> cnnd<6> cnnd<5> cnnd<4> cnnd<3> cnnd<2> cnnd<1>
+cnnd<0> cnpd<19> cnpd<18> cnpd<17> cnpd<16> cnpd<15> cnpd<14>
+cnpd<13> cnpd<12> cnpd<11> cnpd<10> cnpd<9> cnpd<8> cnpd<7>
+cnpd<6> cnpd<5> cnpd<4> cnpd<3> cnpd<2> cnpd<1> cnpd<0> dis_n_a
+dis_n_b dis_n_c dis_n_d dis_n_e dis_n_y dis_p_a dis_p_b dis_p_c
+dis_p_d dis_p_e ff_b gtl0 gtl1 gtl2 loc_vss_ctrl loc_vss_drv
+loc_vss_lev loc_vss_pred loc_vccaux loc_vcco loc_vdd_ctrl
+loc_vdd_lev nslew0 nslew1 nslew2 nslew3 nslew4 nslew5 pad
+pdelsel_vccaux pdelsel_vcco pdelselb_vccaux pdelselb_vcco
+plvlsel_vccaux plvlselb_vcco por_b_vccaux por_b_vcco pslew0 pslew1
+pslew2 pslew3 pslew4 pslew5 pslew_lowvcc term term_b ts_b tsb_s<0>
.prot FREELIB
7W/E57D#<C[Ge7%KaW[G86PW;KidgY/ 0Ymz.28
o!:fH$#<2p2 239h#+c[gt7'/fm= .#t5U=d(l
)Ci#uxZt%rLp9Iud4\s+c2u$8G=05pg8m'9+c20
'4VlP9[(J<y+:r0>H#/tq*X3[,T$oC[d:\*S96
e7)>uW+*7+*$#=<f8z../)<96A3M[;q=.3>./)y
38s;X# 9Xv+07%kAw[g86dw;kIDGy/ 0yMZ.y8
o!:hs$#<2piU239h#+c$gv7'/fm= .#t5U]d l
)CiE(xZt%rJ>9Iud4\s+c>2:s%V'%dZW8K Qkz
FhHY3:=2'0<-wfB;786*s%96a3m[;Q=.3>.//Y
38s*># 9Xv+;7%kAw[g860w;kIDGy/ 0yMZ.-8
o!:hJ$#<2p21239h#+c$gx7'/fm= .#t5U]d/l
)CiE2xZt%rJ#9Iud4\s2c3u$8G=05pg8m'92c30
'4;hc9[(J<Rl:r0>H#/ q5X3[,T$oC[d:\\S'6
e7shyW+*7+0h#=<f8z../$:Y>lw1DS+M6O66[Q
7W/E;7\) I )$M*t!C3U$8g=05PG3M$22C3UL
)C43$xZt%ri39.i84/::y>LW1dsfm4'86pq
7W/E*7\) I/j$M*t!Co2:S%v'%Dlwrstq<Z
Fh<ji:=2'0=-w0][7.0#5%R.;v6%VrX[gt[
4#P/V280s4>SXd6#cS9bX3[,T$oCid\%\S96
e70xJW+*7+0=#v2]8GT9#5%r.;V6%vRx$GT[
4#>(*280s4m$Xd6.cS996A3M[;qr.MJ./)y
38+pJ# 9XvH)7tT+wd $8G=05pg3m$2+cp0
'4V,)9[(J<34:M$IH6DW;KidgY/=007I.Y8
o!i1J$#<2p[j2W.\#Qkx3[,t$OcID\%\s%6
e7)ERW+*7+7I#v2]8G[7'/FM= .,T! ]DAL
)C4([xZt%rPE9.i84/F:y>LW1dsfm4'860q
7W/E)7\) I E$M*t!C32:S%v'%Dlwrstq-Z
FhJU4:=2'0Bjw0][7.1#5%R.;v6%VrX[gG[
4#>:V280s4c[Xd6.cS'96A3M[;qr.MJ./$y
38);XMLv9[(j<vH_/)2W.\#Q3rV%7'/fm= .,t! =dFl
)C3#/rT%7\) i/y#=1w0][7.)MJv96a3m[;QR.mj#/oY
38);XMHv9[(j<vH_')2W.\#Q3ry%7'/fm= .,t! =dFl
)C3#/r+%7\) i/y#J1w0][7.)M4v96a3m[;QR.mj#/oY
38);XMiv9[(j<vH_:)2W.\#Q3rs%7'/fm= .,t! =dFl
)C3#/r)%7\) i/y#<1w0][7.)M3v96a3m[;QR.mj#/oY
38);XMuv9[(j<vH_2)2W.\#Q3rJ%7'/fm= .,t! =dFl
)C3#/rH%7\) i/y#i1w0][7.)MPv96a3m[;QR.mj#/oY
38);XM+v9[(j<vH_s)2W.\#Q3r:%7'/fm= .,t! =dFl
)C3E(rHSP# 9Xvs;wje:m$ih6413u)2:s%V'%dLWRSTQ3z
FhJY,_[%q$#<2p:fc7P#V2]8g'w3uv96a3m[;QR.mj./oY
38)*eMP3+xZt%ri#H%q$m*T!cEc7=1w;kIDGy/=007i.)8
o!uhe#=je:=2'0H]1M+xD6.Cs7H :%7'/fm= .,t! ]dFl
)C3E(re%7\) i/e#H1w0]$7.)M,v96a3m[;QR.mj./oY
38)*eMLv9[(j<v,_i)2W.*#Q3rV%7'/fm= .,t! ]dFl
)C3E(rT%7\) i/e#$1w0]$7.)MJv96a3m[;QR.mj./oY
38)*eMHv9[(j<v,_$)2W.*#Q3ry%7'/fm= .,t! ]dFl
)C3E(r+%7\) i/e#>1w0]$7.)M4v96a3m[;QR.mj./oY
38)*eMiv9[(j<v,_()2W.*#Q3rs%7'/fm= .,t! ]dFl
)C3E(r)%7\) i/e#=je:m$ih641M+x3[,t$OcID\%*s76
e7s>]1c+XzT%RI#h h%7Tt2WDf#b1W;KidgY/=007I.)8
o!uhe#=1w+*7+)eMPC+xD6.Cs7H q$8G=05pg3m$22cE0
'4;l#h1Q$#<2P:FC7j1W0]$7.)m+V96A3M[;qr.MJ./Oy
38+7=# 9X/T;7tT2wd(/6d)f96a3m[;Q%2LWRSTQ*00
'4Rp)9[(Jhy+:M$zH6<Kq%2l$8g=05PGV0%vRx[GT98
o!i :$#<2p//2W.*#Q-0gv0%w;kIDGy/;9R.mj./F<6
e70=RW+*7S*b#v2=8GT6D)F96A3M[;q%2lwrs q*Z
Fh<j,:=2')>;w0]$7.0/;9Rx3[,t$Ocp(3m$22c20
'4Rp>9[(Jhyj:M$zH6DSo*i2:S%v'%D T,T! =D L
)C4(sxZt%vLE9.i64/;Q%2L$8G=05pgv0%VrX$gv[
4#P[u280sIe(Xd6#cS%CP(37'/FM= .Y<=007z.S8
o!i1T$#<2>sj2W.*#Qkd t,#5%R.;v6d)fm4'66Gq
7WVh57\) :F:$M* !C3GV0%W;KidgY/;9r.MJ#/fy
38+p$# 9X/e57tT2wd/.y<=:y>LW1dsO*ID\%*s[6
e7sE-W+*7S;j#v2=8Gg6D)F96A3M[;q%2lwrs q5Z
FhHvH:=2')evw0]$7.1/;9Rx3[,t$Ocp(3m$22c=0
'4Rjm9[(Jh;,:M$I.0ZSo*i2:S%v'%DI:0Dtq*00
'4Rjc9[(JhVI:M$I.0ZW;KidgY/t;*PI.0ZQ
7WVt77\) :*Y$M*tq<X3[,T$oC$3TY*S86
e70$yW+*7S0j#v2=D(/7'/FM= ..')o=D(/[
4#P2F280sI>2Xd6#/)<CP(37'/FM= ..')o=D(/[
4#P$1280sIP2Xd6./f<CP(37'/FM= ..')o]D//[
4#P2*280sIP(Xd6./f<96A3M[;q]6(V./f<6
e70$5W+*7S0>#v2=D#$8g=05PG68<;+Co0
'4Rh>9[(JhVp:M$z.0#5%r.;V6*59%[GT[
4#P2V280sI>UXd6#/)q%2l$8g=05PG68<;+C20
'4Rhc9[(JhuU:M$I.0#5%r.;V6*59%$GT[
4#P2u280sIw[Xd6./)q%2l$8g=05PG68<;2C20
'4R4#9[(JhJp:M$z.Y#5%r.;V6*59%[GV[
4#PIH280sIm:Xd6#/;q%2l$8g=05PG68<;+CP0
'4Rh(9[(Jh;3:M$I.Y/;9rX3[,T$oC$3TY*So6
e70$3W+*7SPb#v2]D $8g=05PG68<;2CP0
'4R4)9[(JhJ+:M$z.S#5%r.;V6*59%[G[[
4#PI*280sIm'Xd6#//q%2l$8g=05PG68<;+C>0
'4R4>9[(JhJ3:M$I.S#5%r.;V6*59%$G[[
4#PIV280sIm[Xd6.//q%2l$8g=05PG68<;2C>0
'4R439[(JhJ4:M$z.-#5%r.;V6*59%[GX[
4#PI1280sIm/Xd6#/fq%2l$8g=05PG68<;+C30
'4R4m9[(JhJh:M$I.-#5%r.;V6*59%$GX[
4#PI%280sIc(Xd6./fq%2l$8g=05PG68<;2C30
'4RIe9[(JhJj:M$z.1#5%r.;V6*59%[Gg[
4#P:F280sIcSXd6#/$q%2l$8g=05PG68<;+C=0
'4RI)9[(JhJl:M$I.1#5%r.;V6*59%$Gg[
4#P:*280sIc$Xd6./$q%2l$8g=05PG68<;2C=0
'4;pPhHQ$#<2>:HCPp#v2=Df#>1W;KidgY/t;*Pz.)8
o!u +#i1w+*7s)>MPv9.i8641W+x3[,t$Oc$3ty\s76
e7s=R1)+XzT%VIeh%Q$M* q3RY%7'/FM= ..')o=DfL
)C33ir+%7\) :/V#J1w0][g'wre:y>LW1ds2y2 864q
7Wuh0WVE:=2')hy1>+Xd6#/O_:)2:S%v'%DI:0D q3Z
FhJ34_u)280Si>sr+%7tT+cEcSP#5%R.;v6*59%[g'[
4#m[VC5p# 9x/S*W5E:M$z.)mUV96A3M[;q]6(V#/Oy
38)7<MPv9[(jHvL_$)2W.\s7H q$8G=05pg68<;+cE0
'4;pPh1Q$#<2>:HC*p#v2=Df#x1W;KidgY/t;*Pz.)8
o!:/J#=;e:=2')<j1(+xD6./o_[Uq$8G=05pg68<;2cE0
'4VIch j%7\) :V:#=1W0]$G'W3UV96A3M[;q]6(V./Oy
38s)BMP3+xZt%v4(H%q$m*TQ3rH7P#5%R.;v6*59%$g'[
4#>:%C7x1W+*7S0xm3V9.I66413/)2:S%v'%DI:0Dtq3Z
FhHvu_()280Sip/rs%7tT2cEc;P#5%R.;v6*59%$g'[
4#>:%C*p# 9x/+PWRE:M$I.)mlV96A3M[;q]6(V./Oy
38s)BMJv9[(jHr+_2)2W.*s7H*q$8G=05pg68<;2cE0
'4VIchJQ$#<2>I1C(p#v2]Df#$1W;KidgY/t;*PI.)8
o!:/J#<1w+*7s0XMLv9.i6641p+x3[,t$Oc$3ty*s76
e7)h-1>+XzT%V4(hFQ$M*tq3RS%7'/FM= ..')o]DfL
)Ci>'r)%7\) :v:#=je:m$i.)M3v96a3m[;Q]6(v./oY
38s)BMuv9[(jHr+_[ q$m*TQ3rJ%7'/fm= ..')O]dFl
)Ci>'rH%7\) :v:#=-e:m$i.)MPv96a3m[;Q]6(v./oY
38s)BM+v9[(jHr+_[Uq$m*TQ3r:%7'/fm= ..')O]dFl
)C3>$rV%7\) i*T#X1wfB;786\s7Hhq$8G=05pg8m'9+3z
FhJvJ_$)280S4W$rH%7%kAw[g8641W+x3[,t$Oc[D:\\oY
38))iMHv9[(j<UJ_')239h#+c[g'w5e:y>LW1ds+m6o8)8
o!u/T#<1w+*7+(iM3v9Iud4\s+cEc0P#5%R.;v6\V;o[Fl
)C3>$rs%7\) i*T#H1wfB;786\s7H/q$8G=05pg8m'9+3z
FhJvJ_u)280S4W$r+%7%kAw[g8641M+x3[,t$Oc[D:\\oY
38))iMuv9[(j<UJ_2)239h#+c[g'w-e:y>LW1ds+m6o8)8
o!u/T#=1w+*7+(iMJv9Iud4\s+cEc7P#5%R.;v6\V;o[Fl
)C3>$r:%7\) i*T#>1wfB;786\s7H1q$8G=05pg8m'9+3z
FhHv3_[Uq$#<2ps cpP#=<F8Z../o_[Uq$8G=05pg8m'923z
FhHv3_[%q$#<2ps c7P#=<F8Z../o_[%q$8G=05pg8m'923z
FhHv3_[ q$#<2ps c5P#=<F8Z../o_[ q$8G=05pg8m'923z
FhHv3_[1q$#<2ps cSP#=<F8Z../o_[1q$8G=05pg8m'923z
FhHv3_()280S4E[rs%7%kAw[g6641#+x3[,t$Oc[D:\*oY
38s)JMLv9[(j<YP_i)239h#+c$g'wYe:y>LW1ds+m6o6)8
o!:/)#i1w+*7+*=MHv9Iud4\s2cEc(P#5%R.;v6\V;o$Fl
)Ci>ury%7\) ihH#i1wfB;786*s7Hjq$8G=05pg8m'923z
FhHv3_i)280S4E[rV%7%kAw[g6641p+x3[,t$Oc[D:\*oY
38s)JMiv9[(j<YP_()239h#+c$g'wve:y>LW1ds+m6o6)8
o!:/)#J1w+*7+*=MP(+xL//C Q]dF#J1w;kIDGy/ 0yMi'[
4#>:uC5p# 9xVv7W3pV9iUD4\S2CeC5p#5%r.;V6\v;O$fL
)Ci>urH%7\) ihH#=-e:R0>h#/TQ3rH%7'/fm= .#t5U]E0
'4VImh1Q$#<2PS C7j1WFb;786*S7h1Q$8g=05PG8M'923Z
Fhm0/Q%6Pp7\) 21J$#<2M2j2W.\s'9.i86[sO*I2W.\s[9.i860sO*I2W.\s%6
:d6#//q%2l$M* q%Xd6#/;q%2l$M* q*Xd6#/)q%2l$M* q*02w.\S9bD T,8
_0][g'wYe:m$Z.)MJv9.i8641)+xD6#/o_i)2W.\s7H/q$m* Q3r)%7tT+cEc5P8
_0][g'w3e:m$Z.)M+v9.i86pw0]$gG7tT2c=gv0%w0]$gx7tT2c3gv0%w0]$gx98
_0]$gx9/;9RxD6.//:m$i.s/;9RxD6./;:m$i.y/;9RxD6./):m$i.0/;9RxD6./)<6
:d6./)<CP(37Tt2CeC7j1W0]$G'W3UV9.I66413[)2w.*S7h :%7Tt2CeC;p8
_0]$g'wYe:m$i.)MJv9.i6641)+xD6./o_i)2W.*s7H/q$m*TQ3r)%7tT2cEc5P8
_0]$g'w3e:m$i.)M+v9.i66pw25p2hm0s0->gv89s%_z
Fhm0/Q]6(vX# 9X/:(7\) :1+$#<2>/1280Si([xZt%vuE9[(jH;+:=2')J-w+*7sSH8
_+*7s)J# 9X/s77\) :1V$#<2>/j280Si(uxZt%v+C9[(jH-J:=2')B]w+*7sS=8
_+*7sSJ# <R24S722f/x!j,3w0][7.1#V2=8gx7tT+wda$m* !cp2W.\#Q5d t,8
_0][7.-/;9RxD6#Cs%cp(37tT+wd .y<=:m$Zh6<sO*I2W.\#Q*xD6.Cs'9.i64/FY
8.i64//:m$ih6dw0]$7.1/;9RxD6.Cs[cp(37tT2wda.y<=:m$ih6dsO*I269%)I[z
$69%)I'xZ/,<m(9[u30xP:=2'9=jw+*7s0H# 9X/s*wje:=2')HY13+xZt%viEH%ql
T\) :/V#J1w+*7s)>Miv9[(jHvL_i)280Si>sry%7\) :/V#i1w+*7s)>MLv6
:zT%V4(h1Q$#<2>I1C7p# 9x/+PW-E:=2')<J1m+XzT%V4(h/Q$#<2>I1C0p8
_+*7s0XMHv9[(jHr+_$)280Sip/rV%7\) :v:#e1w+*7s0XMP(+xZt%v4(H H%[
a 9x/+PW3UV9[(JhR+_[uQ$M*t!CeC7j1W0]$7.)mpc+Xd6.cS7h h%7Tt2WDf#=JEy
8.i64/o_()2W.*#Q3rV%7tT2wdF#i1w0]$7.)MHv9.i64/o_i)2W.*#Q3rs%[
av2]8G'W;E:M$IH641c+Xd6.cS7h Q$M*t!CeCPp#v2=8G'WyE:M$zH641w+Z
$W.\#Q3ry%7tT+wdF#<1w0][7.)Miv9.i84/o_u)2W.\#Q3rJ%7tT+wdF#=1q
$M$zH641(+XzT%V4e9.I84/::M$zH6<K:M$zH6<Kq%2l$#<2>:J280sIPUXzT%V4#6
:zT%V4)9.I64/f<CP(37Tt2WD//7\) :*Y$M*t!Co280sIw'XzT%Vj39.I64/)y
8.i64/)Q%2L$.z=9DU289%)I'xi/,<m(9[(jHvi:=2')J]w0]$7.0zw0]$7.0zsO*I0
o#<2>$*2a%%U:=0lTUVW+bi(,<#t<r24)7*KF*c+$.Z=9dDlwU9/%6
:7w-/v[KDI:0DS%_Z
Fhm0/Q%2Lp7\) :f)$#<2>(1280SiE(xZt%vLW9[(jH]i:=2')e-w+*7s*$# 9X/V*[
av2=8Gg7Tt+WD/$M* !C>2w.\#q%Xd6.cS'9.I64/f:M$IH6gW0]$7.Y8
_fm>g<9zs%X6L$#<2>s/280S4(2xD6#Cs9BxD6.Cs[BxZt%vL(9[(j<ji:=2')>;q
$=2')>-W0]$7.0#v2=8GT7\) :*E$M*t!C2U$.D)Fb2l.+g/'0e26Y<=<*i/.+g/06
:IV0%K9rDp[STW2%2l/0%fq\>Agr4W!M3Gw-gSo*iG[n8
o!m3a.,9=<F1280S4C/xZt%rPE9[(j<3H:=2'0=vw+*7+7B# 9XvJ77\) i e$#<2p[*0
o#<2P[V239H#+C[Gg7%KaW[G860WFb;786\S%9iUD4\S+CP239H#+C[GT7%KaW[G66[Q
$r0>H#/tq-Xl//c q]DA$,Z*!=DI.Y# 9xJ:)7\) Iu+$#<2P'H280s4>:Z
$80S4>2r:%7\) i/y#=1w+*7+)$Muv9[(j<vH_u)280S4>2rs%7\) i/y#<1q
$=2'0h51)+XzT%RI)h*Q$#<2P:JC*p#=<f8z../O_[uQ$,Z*!=DI.)mpc+Z
$39h#+c$g'w3Pv9Iud4\s2cEc7X1wfB;786*s7Hfq$,z*!=di.)MLv9Iud4\s2cEc(P8
_fB;786*s7Hjq$,z*!=di.)M4v9Iud4\s2cEc)P#=<F8Z../o_u)239h#+c$g'w-eY
8Iud4\s2cEc7P#=<F8Z../o_/)239h#+c[g'wYe:R0>h#/ Q3rT%7%kAw[g8641)+z
$39h#+c[g'wre:R0>h#/ Q3rs%7%kAw[g8641M+xL//C Q=dF#B1wfB;786\s7H ql
T%kAw[g8641(+xL//C Q=d#$#<2p: 239h#+c$gx9#=<F8Z.#/)<9[(j<33:=2'0HYq
$].3.-/Y%K=M'7*v;C3G<Sgv:=2'0h-WFb;786*S99[(J<;j:=2'0<3WFb;786*S9bZ
$80S4>(r:%7\) i/e#=1w+*7+)eMuv9[(j<v,_u)280S4>(rs%7\) i/e#<1q
$=2'0h]1)+XzT%RI#h*Q$#<2P:FC*p# 9xVS;W]E:=2'0h]13/)280s4>(Rh7p8
_+*7+)eMPC+xZt%ri#H )%7*=6R0(369/%54F$.%yfB2Lx69/%mz
$hm0s0->g3+%kAc>Xl
)CV[kdaj8%+:=2'0<Yw+*7+0e# 9XvT)7\) iv+$#<2p2 280S4p:xZt%rH(9[(j<ruY
8[(j<r3:%8u.#/$:%8u.#/F:%8u.#//:%8u.#/;:%8u.#/):%8u../$:%8u../FY
8p7/6*s%9p7/6*sO9_\.-#2<c3280SH(2xZt%r4W9[(j<UJ_/)280S4W$rH%[
a 9xVt(W-E:=2'0Iu1m+XzT%Rjwh/Q$#<2P$*C0p# 9xVt(W5E:=2'0Iu1w+Z
$80S4W$rV%7\) ihH#X1w+*7+*=MPv9[(j<YP_')280S4E[r)%7\) ihH#H1q
$=2'0>31P+XzT%Rl3hJQ$#<2PS C(p# 9xVv7WyE:=2'0>31#+XzT%Rl3h :%[
a 9xVv7W3pV9[(J<yp_[%Q$#<2PS C7j1W%=[ #=;E:K[zVW3UV9>z8Ymp3+Z
$[#\;_[1q$s\ OHfq$s\ OHhq$s\ OH*q$s\ OHjq$s\ OHvq$s\ OH/q$s\ OHUql
TG +%rJ%7G +%rH%7G +%r:%7G 2%rH;P#/+]pc7>1w%=$ #=Ue:k[ivw3Hv6
:A8.D13I)2[#*;_[/Q$S\toh )%7g 2%Rh5p#/+]PC7=1W%=$ #=JE:K[IVW]Ey
8>Z6yMLv9>Z6yMJv9>Z6yMHv9>Z6yM4v9>Z6yMiv9>Z6yM3v9>Z6yMuv9>Z6yMPv6
:A8.D1(+XzT%Rj#9[(J<y4:x23>7s);OD/$YcKq]D($#<2PS1280s4e2X'/-/K_/)0
o#<2PS*2HM0S0->G[%'=qKk0
'4V+>9-U/7\) IHt$)cS!=-2,#q+H'1:$,\((E1tP7\[!=g(:9qp:d$*P!-+(9iIyx++w/Z
$6DC z*6uY=8
y!\p .sS5f9ID[69;Oc>':,# 9Xv+(7jq
6W-A[M/=6r0>$,T/q\>Aw7\) I/S$x8
y!\p .,9=<FxLWs/yO%dLt+# 9XvJ*7jq
6W-A[M/;F<XlwS/Y%K.280s4(2X:L
+Cy%k.g68<;:R.a.+G/09[(jHUJ:/z
Ph+G/0cp3<7%V%c-a[m# 9XUy97jq
6WP3<69K<9[(J$JU:r.A.+ZKq%6p$x8
y!R-L///y<BxZt%5+>9ID[69k<cI(<7jq
6W>':,/Y<bXzT%5+)9id[69K<C>':,#+y
\8P[s[!7cIP39hwfm>g<sG$r3xZt%r3p910
<4*59%Dp/9# 9xJhP7%v%C-U/6*59%X:L
+Cy%k=m'6d=89ID[69/%54F$#<2>s/2p[
9#6K>;\)/t;*P23MgS6K>;\)# 9x/+)7JQ
H0[I:MsQ
.ends iob_outbuf_cz_sim_orig
