** End of subcircuit definition.
************************************
** Library name: rnr_spice_sanjay
** Cell name: iob_obc_ctrl_pc_b
** View name: schematic
************************************
.subckt iob_obc_ctrl_pc_b cnpd ctsb ff_b loc_vss loc_vdd mcpd normal_p term
+ts_b
.prot FREELIB
%/Xd66T! 9-U/7g(PjZ
a77GT%=733=#y<BxaY>+it6
eO6># 9xF+$SsK[9id[69;o9id[69;o9$Ow9#M-'Bh*7%((E1t$#4(m94 yx#!<)10
'\*j:=.3>1%S29[(JERW+*7t;7%v%C- V7*90bX4yb+pe9i*P!Jj:=e*97$;-! 2\9qpy
3Mi97\) $f2ty'y:R.a.+d;:R.a.+d;:]MD/7x(Ce V$,Q+h/*28)QH:0p*==#!<) 0
'\*U:K$A8%'=397U.-#=0KDpVY#=0KDpVY#tuM02,_-x3SXlyx++w9[fyj#!o)12\9q+y
3Mi)7\V;o=L..#/2k[':,3w+*7e77%V%c- v7*90Bx4YB+PE9I*p!jJ:=E*97$;-! 2\9QPY
3MiS7\) ( 2ty'yQ-xLWs/yO%xLWs/yO%xi>mzwI)%-7>#=-/b:(7\o-2xmv_.P:00*7[
492(XzT%]4:=2'7<]WFM>G<YDWFM>G<YDW2O.U$UqUH[H23_Jx($Xz'_;WR%a:$rZ((6
eO6=#/2K[':,3W0]Dd\%#=0KDpVY#=0KDpVY#tuM02,_-x3SXlyx++w9[fyj#!o)12\9q+y
3Mip7GT%=733=#9%]223mGs6%p23mGs6%p26\tk:DAJz=Ywf)1-pi# 7)U2\yQ+:00*p[
49+[XzT%3+w9.I.M$2:=2'7j3WFM>G<9ZW+O.U$UqUH[H23_Jx($Xz'_;WR%a:$rZ((6
eO8h# 9x h77<;;\XlwS/Y<bXlwS/Y<bXz>MZWi)%-7>#=-/B:(7\O-UXMV_JWRba:L
)K M9[D:\[=Q]xa6s\2;R 280SP3[xLWs/y<BxZ>mzwI)%-7>#=-/b:(7\o-uxmv_jwrBA:l
)K )9[D:\[=Q]xZt%]4:=2'7Bjwfm>g<9zw+o.u$uQuh[h23_jX($xZ'_;wr%A:$Rz((6
eO8># 9x js7\) [VE$,T/q\0U$,T/q\0U$#kv<9c*7!-WF)1-PI# 7)/2\Yq6394Uy=8
oU=*280SPC/x(v89s[9ID[69k<9ID[69k<9[oW9#m-'bH*7%((e1T$#4(M94 YX#!<)10
'\\+:=2'7j3WuK$($,T/q\0U$,T/q\0U$#kv<9c*5!3l:ra:ZxuW+3a)$rD((94Uyx8
oU=%2[.G  yIH$%zs[9[(j=jJ:R.a.+zk:=MD/7x(Ce V$,Q+h/*28)Q3:0p*p7$k-/z
F>#]w+*7e07G2<-xZt%3uM9ID[69k<9[oW9#m-[bJ$,Q+h/*28)Qi:0p*==#!<) 0
'\*4:M$GwrsWTjD/$,T/q\P $+D;:]md/7X(cE v$,q+H/*28)q3:0P*P7$K-/Z
F>#rw0]dD\%#[tc323mGs6B02<9zw+o.u$uQPh2/23_jX($xZ'_-wr%A577$k-[z
FhBU3:X23>7K/2%x(v89w7wdZG#du:D[*p!-u(9IZYX++W/xZ 4\D9y0*77xT-/bJ5X8
_f]A:zXU+:]_78o<5<) 0
'4-j39>z6Y#9%]P2>S*):38G81\;c9czyx+Uc/Xl8_Jx($128dc Z*6Uy=#M2)1-5bJQ
$r$*P!Jj(9$\H#2);bahL
)Cu>sx(v89w9%6P.-#o!c8Z<7x -/bJ5X#=+)1-pijw+J8ZA0'k-[x46_jXC'10
o,*((E1tP7*[!=g(:9qpy
38J9H#/+]p280SPp(xFh6C 69CZYX+uC/xL8_jX($128DC z*6uY=#m2)1-5Bjq
$r$*P!Jj(9$\H#2);bahL
!$ 2y.'l
.ends iob_obc_ctrl_pc_b
