** End of subcircuit definition.
************************************
** Library name: rnr_spice_sanjay
** Cell name: iob_obc_del_p_bs
** View name: schematic
************************************
.subckt iob_obc_del_p_bs in loc_vss loc_vcco out pdelsel_vccaux
+pdelsel_vcco pdelselb_vccaux pdelselb_vcco
.prot FREELIB
%/X T,/#+xXp/9#/-$Bj [
49+x%2wrsW2%2l/0%fq\>Agr4W!=XlwS/Y<bXz>MZ203u)$UqUHSXlyx+I:=e*57$;-! 2\9qpy
3[H;B#VrXxiv0%k9RdP[s[!79p(36C  9ID[69k<9[oW9SV7uU2,_-XE9I*p!vw+3AJ$Rd(*[xm/_3q
7O['P7D)FC8zJ7*;9r0(369/%54f$4\WFM>G<9ZW+O.UJM43m9c*5!yWF)1-)7\O-'XMV_.p:00*7[
49+x 23MgS6b02V0%S!=723MgS6b023MgS6b028\TK Me)s7X(mEV23_;xP94 yx#!<)10
'\*239.MJ7*;9r0(369/%MX787%v%C-A[M#tuM0'w);3:dajZ>#=-/Bj*7\O-'XMV_.p:00*7[
492x12V0%S!=726Y<=<*i/.+g/098z$,T/q\>Aw7*90b7d'j;Wi)%-*7%((E%v$#4(c94 y33WRbahL
)*23(f2WRSw2%2L/0%FQ\>aW7d)fc8Zj7%V%c-a[m#TUm0'W);3:DAJz>#=-/bJ*7\o-'xmv_.P:00*7[
+!+]6dJ[
.ends iob_obc_del_p_bs
