** End of subcircuit definition.
************************************
** Library name: rnr_iob
** Cell name: iob_cfg_spd
** View name: schematic
************************************
.subckt iob_cfg_spd pslew1 pslew2 nslew1 nslew2 cbnet<15> cbnet<14>
+cbnet<13> cbnet<12> cbnet<11> cbnet<10> cbnet<9> cbnet<8> cbnet<7>
+cbnet<6> cbnet<5> cbnet<4> cbnet<3> cbnet<2> cbnet<1> cbnet<0>
+cfg_spd extest fst_cfg_b vccaux init_vccaux_lvlsh_b nslew3 pslew3
+nslew0 pslew0 gtl0 gtl1 pslew4 nslew4 pslew5 nslew5 gtl2
+pslew_lowvcc force_ttl_io
.prot FREELIB
7WuE57\) :Vt$+g/'0e269%)i:XzT%-4m9[(JbRp:W[7J69/%54f.,9=<fD/L
TCV[c7L<9h2Cc%+l
)C3#uxZt%v4#9-a[1$o:=2'5<Yw+*7J0e# <R24)7C !XdP[s[!7cIP39hs[6
:7w-/2F\0>Jb/UP6
e7)x-W+*7S9<#Y%K=M'7*KF*c+$#<2c2V280sU)UX784sS6K>;\)/=6r0>.-8
_!m3gj,9kAX%g5<8
o!uhy$#<2>$f2<sG$r3xZt%-J39[(jBUu:=0Ltujw!=8'.+G/'0Eg3+%kAc30
o4Tfqxip//sUq'V0
'4;l#9[(Jh53:\>Agr4W+*7j(I# 9x%t*722F[X784sS6K>;\)/=6r0>.-8
_!m3gj,9kAX%g5<8
o!uhV$#<2>2 2<sG$r3xZt%-LM9[(jBYi:N7Lp7C !XdP[s[!7cIP39hs[6
:7w-/2F\0>Jb/UP6
e7s>uW+*7S(=#Y%K=M'7*KF*c:$#<2c(1280sUeSX784sS6K>;\)/=6r0>.-8
_!m3gj,9kAX%g5<8
o!uhJ$#<2p/ 2<sG$r3xZt%-,p9[(jB]H:=0Ltu-w!=8'.+G/'0Eg3+%kAc30
o4Tfqxip//sUq'V0
'4;lP9[(Jhy,:\>Agr4W2bi(,=# 9xu:57\) U1:$4\# C-A[1$Oqr-l///fy
88Dx6S=6B;'56-4Y
38)*H# 9Xv:S79/%54F$#<2C:*280Su>sxZ/,<m398Zh%/y%k=m'6%yfB;gx[
a#0-D'3+Z* 'Dj0[
4#mSu280sI#UXp[S[!79$U30XU:=2'sxyW+*7)P$##+W7G<Sg$R3Dl<,Z*q-Z
$hm0s R-ud%-sCiz
FhHj3:=2')$Uw6k>;\)# 9XUH57\) u )$#z=9Dv2h#C2Q\>aGR4sf\Iud60q
$W./.%%Y<f7j.bRQ
7Wuv77\) :JE$+g/'0e269%)iUXzT%;U(9[(Jj3l:W[7J69/%54f.,9=<fD/L
TCV[c7L<9h2Cc%+l
)Ci3'xZt%v,W9-a[1$o:=2'SBvw+*7)5<#D R%2h#C2Q\>aGR4sf\Iud60q
$W./.%%Y<f7j.bRQ
7WuvP7\) :FE$+g/'0e280s3m[XzT%;3c9[U30X3:W[7J69/%54f.,9=<fD/L
TCV[c7L<9h2Cc%+l
)Ci3sxZt%r+#9-a[1$o:]0Ltu/=0D-a[7\) uUT$#<2Muv2h#C2Q\>aGR4sf\Iud60q
$W./.%%Y<f7j.bRQ
7WuE)7gf+*7C;p#/TnDU6Y# 9xuS77Z)F90(360W!M3G[d29R3Z
FhJ]4:k3Zt%MLv9>\A6zTO9[(jJvH:B2L$9<=Q-x7W-//tNMm'[
4#mI 2[-\) h S%79K<9[(JjRp:b2l$9<=q-X7w-//TnmM'[
4#mI%2[-\) h )%79K<9[(JjRh:b2l$9<=q-X7w-//TnmM'[
4#>//2[-\) h h%7g[ZC0IV7\) UJh$9<=:b2l.-##0-DA Ok!76
e7)xRW%-[(JW3+V9>\a6Zto9[(Jj5h:b2l$9<=q-X7w-//TnmM'[
4#m2H2[-\) h1Q$S:dqb$ $#<2m$ 2/0%W<*iGX7cv[C>\a\$Oy
38)(J#/[=2'#=1w%JGg/.dw+*7)($#k9Rxut,/F:w./.s:DU0E0
'4;I(9>/80s1w+XA O/K2%XzT%;l390(37Z)FC32HM0S%jgO\)8
o!:h)$s0 9Xrs%7G[zc0iv7\) uhy$9<=:B2L.-##0-da oK!76
e77IRW%-[(JW5E:K_!.9*;:=2'sE;W<*i2/0%S[98dX6g[ZO4fL
)Cu#sxax#<2_')2[D2s<]p280S3#2xut,#k9Rd/$4tFQk_!>R4q
7W/hs7gf+*7C7<1W6b0280sI([XUT,#K9rD/$4TfqK_!>r4Q
7W v57gf+*7C0p#/TnDU6Y# 9x/:97Z)F90(360W!M3G[d29R3Z
Fh=Y4:k3Zt%M3v9>\A6zTO9[(jH3P:B2L$9<=Q-x7W-//tNMm'[
4#>[F2[-\) h j%7g[ZC0IV7\) : Y$9<=:b2l.-##0-DA Ok!76
e7sIuW+*7+7b#K9rD/$)cS!=-2,#q+H21:$,\((E1tP7\[!=g(:9qp:d$*7!-+(6
:l6_Jx($126dc Z*6Uy=8
o!:1:$#<2M:j280Sip$xFh6C 69CZYX+i(/xL8_jX($128DC z*6uY=#m2)1-*Xjq
$r$*P!Jj(9$\H#2);bahL
)Ci([xZt%;i39[(jHr,:38gh#9wI=A:zHj+:R[*p!jJ(9[\h#2);BAH$u*((eh:p[
a=2)1-PIJW2j8za0'K-[Z
FhJr,:=2'S<5w+*7s9=#o!c8Z<7x -/bspX#=+)1-pijw+J8ZA0'k-[x46_jXE/10
o,*((E1tP7*[!=g(:9qpy
38)9X# 9XU+77\) :j)$)Cs!=-2,#Q+h:1:$,\((e1Tp7\[!=G(:9QP:D$*p!Y+(6
:l6_Jx($126dc Z*6Uy=8
o!: :$#<2M2j280Si)ixFh6C 69CZYX+i(/xL8_jX($128DC z*6uY=#m2)1-*Xjq
$r$*P!Jj(9$\H#2);bahL
)Ci3[xZt%;H39[(jH5J:38gh#9wI=A:zHj+:R[*p!jJ(9[\h#2);BAH$u*((eh:p[
a=2)1-PIJW2j8za0'K-[Z
FhJUi:=2'Se;w+*7s9e#o!c8Z<7x -/bspX#=+)1-pijw+J8ZA0'k-[x46_jXE/10
o,*((E1tP7*[!=g(:9qpy
38)9$# 9XUT77\) :*H$)Cs!=-2,#Q+h:1:$,\((e1Tp7\[!=G(:9QP:D$*p!Y+(6
:l6_Jx($126dc Z*6Uy=8
o!'h:$#<2>$/280SiWuxFh6C 69CZYX+u(/xL8_jX($128DC z*6uY=#m2)1-5Xjq
$r$*P!uU(9$\H#2);bahL
)CuE[xZt%vJM9[(jHri:38gh#9wI=A:zBj+:R[*p!Uu(9[\h#2);BAH$u*((e%:p[
a=2)1-PIJW2j8za0'K-[Z
Fh=UL:=2'0=rw+*7s(i#o!c8Z<7x -/bJpX#=+)1-pijw+J8ZA0'k-[x46_jXC/10
o,*((E1tP7*[!=g(:9qpy
38)9i# 9XUT97\) :*e$)Cs!=-2,#Q+h:1:$,\((e1Tp7\[!=G(:9QP:D$*p!Y+(6
:l6_Jx($126dc Z*6Uy=8
o!'js$#<2>$*280SiE[xFh6C 69CZYX+u(/xL8_jX($128DC z*6uY=#m2)1-5Xjq
$r$*P!uU(9$\H#2);bahL
)Cu)ixZt%vL39[(jHUi:38gh#9wI=A:zBj+:R[*p!Uu(9[\h#2);BAH$u*((e%:p[
a=2)1-PIJW2j8za0'K-[Z
FhBY,:\p $#<2>sv2'4/#+\x48_jXC/123#Q+h/*:$#:#+N23/_3wI]A:zBj+Y
8IiYX+JC/xi 4\D9y0*7[
4#m(12[d2S<]P280sIe$XfH6c 69czyx+l>/Xl8_Jx($128dc Z*6Uy=#M2) -9EJQ
$r$*P!Jj(9$\H#2);bahL
)C3)(xZt%;,)9[(jHY,:38gh#9wI=A:zHj+:R[*p!jJ(9[\h#2);BAH$u*((eh:p[
a=2)1-PIJW2j8za0'K-[Z
FhB]+:=2')>rw+*7s;=#o!c8Z<7x -/bJpX#=+)1-(Bjw+J8ZA0'k-[x46_jXC/10
o,*((E1tP7*[!=g(:9qpy
38)(=# 9XUV97\) :f)$)Cs!=-2,#Q+h:1:$,\((e1Tp7\[!=G(:9QP:D$*p!Y+(6
:l6_Jx($126dc Z*6Uy=8
o!u*y$9<=Q-xut,#o!c8Z<7x -/bypX#=+)1-pijw+J8ZA0'k-[x46_3XC/123.Q+h/*:l
T*[!=G(:9QPY
38s7i# 9X/:77\) :fT$)Cs!=-2,#Q+h:1:$,\((e1Tp7\[!=G(:9QP:D$*p!Y+(6
:l6_Jx($126dc Z*6Uy=8
o!u*+$#<2Ms 280Si#(xFh6C 69CZYX+i(/xL8_jX($128DC z*6uY=#m2)1-*Xjq
$r$*P!Jj(9$\H#2);bahL
)C3W'xZt%v+)9[(j<jP:38gh#9wI=A:zHj+:R[*p!jJ(9[\h#2);BAH$u*((eh:p[
a=2)1-PIJW2j8za0'K-[Z
FhJU+:=2')=3w+*7+pJ#o!c8Z<7x -/bspX#=+)1-pijw+J8ZA0'k-[x46_jXE/10
o,*((E1tP7*[!=g(:9qpy
38s5<#[0y>(.%S=Qw.280S4(ixFh6C 69CZYX+u(/xL8_jX($128DC z*6uY=8
_I]A:zBj+:R$*p!jJ(9$\h#2);BAHl
)Cu)sx('%<k 9[(j<jJ:38gh#9wI=A:zBj+:R[*p!jJ(9[\h#2);BAH$u*((e%:p[
a=2)1-PIJW2j8za0'K-[Z
FhH-u:=2')=5w+*7+pe#o!c8Z<7x -/bspX#=+)1-pijw+J8ZA0'k-[x46_jXE/10
o,*((E1tP7*[!=g(:9qpy
38J9B# 9XvH*7\) i +$#<2p[%2'4/ '=pJ$u\((e%:p7% -/b:(X# tw[!t8z(36
:46_Jxc/123.q+H/*:$.:#+n23/_3Q
7W t;7\) I1t$#<2P' 280s43IXfH6\$+%%2,#q+H'1:$,\((E1tP7\[!=g(:9qpy
8CiYX+u(/xL6_jX($126DC z*6uY=8
o!'j)$+d;:=2')<vw+*7+7>#o!c[;8y-wI=A:zBj+:R[*p!jJ(9[\h#2);BAHl
TxT-/bJpX#=2)1-pijw2J8ZA0'k-[z
FhH-3:=2'0XrwtB7g[D2s[9[(j<-P:38g81\;C9CZYX+u(/xL8_jX($128DC z*6uY=8
_I]A:zBj+:R$*p!jJ(9$\h#2);BAHl
!$ 2y.'l
.ends iob_cfg_spd
