** End of subcircuit definition.
************************************
** Library name: rnr_iob
** Cell name: iob_up_dn_keep
** View name: schematic
************************************
.subckt iob_up_dn_keep eoc_user_en extst_smpl ghigh_b gts_cfg_b gts_usr_b
+hswapen inbufout loc_vcco io pup pdown keeper por_b_vcco fst_cfg_b
+sysmon_auxin
.prot FREELIB
7W$ wU\+:*e'/%/Ku]i2a/cdaC32a%ZS%jgGX7HKi5$(87\) (12HM##0-DIVMX y
38i\./y%m12 9Ss%JGgx72*!N;gx722<c>\A60wzX0g\9's[9;u,1*)+98D$,t/Q\>aW[
at0YD/.+g/09[(J>yW<<0Ow#/$R38z$4Tfq]4I.+gvy
38eS7<V%c4ut8/)+9G'/6G[zc3280S,)9[(jivw7wdZG#d3:D$*p!-+(9IiYX++W/z
$6DC z*6uY=#m+)1-5Xjwf=A:zXU+:=_78o<5<) 0
'4;h:W[/\dT! 9[(JE;W20$280sj#9e7.1T#c[X481q+H'1:$,\((E1tP[
aM+5D\H#2);bah$U\f-/BjPx#M+-D\H#2);bah$U*$-/BjPx#=2)1-PIJQ
$d$;.dc Z*6Uy=#M2-a:ZbJ+:d$/.dc Z*6Uy=8
o!u*280SL)9[(je;w2%.487\) sU2'4/$0w%H$u\$-/bJpX#=+)1-pijq
$d[;.dc Z*6Uy=#M+-a:ZbJ+:d[/.dc Z*6Uy=#M25a:ZbJ+:r$*P!Jj(6
:461/[!=g(:9qp:d$/yx+U(/X46-/[!=g(:9qpy
38e77W)9]23$#<2E:xFh6C 69CZYX+u(/xL8_jX($128DC z*6uY=#m2)1-5Xjq
$r$*P!Jj(9$\H#2);bahL
)C,(98ZxR:VrXxZt%YH:38gh#9wI=A:zBj+:R[*p!jJ(9[\h#2);BAH$u*((e%:p[
a=2)1-PIJW2j8za0'K-[Z
Fh>]w+*7T;7\) sh2'4/#+\x48_jXC/123#Q+h/*:$#:#+N23/_3wI]A:zBj+Y
8IiYX++W/xi 4\D9y0*7[
4#P(XzT%y3:=2';x#O!C8z<7X -/BjPx#=+)1-PIJW+j8za0'K-[X46_Jxc/10
o,*((E1tP7*[!=g(:9qpy
38yS7\) $/280SL>9[(je;w7wdZG#du:D[*p!-+(9IZYX++W/xZ 4\D9y0*77xT-/bJpX8
_f]A:zXU+:]_78o<5<) 0
'45U:]Pd,##tR]XzT%]h:38G8M'U:d[*P!-+(9izyx++w/Xz 4\d9Y0*77Xt-/BjPx8
_f]A:zXU+:]_78o<5<) 0
Zr\t;M70
.ends iob_up_dn_keep
