** End of subcircuit definition.
************************************
** Library name: rnr_spice_sanjay
** Cell name: iob_obc_pred_p_a
** View name: schematic
************************************
.subckt iob_obc_pred_p_a loc_vss loc_vccaux loc_vcco opp opp_del oppi
+oppi_del pslew0 pslew1 pslew2 pslew3 pslew4 pslew5 pslew_lowvcc
.prot FREELIB
7O['*7\) '%S$.Z=9d123MgS6b023MgS6b028\TK Mej07X(3E%+$,q+HIXMV_JWRba:L
)K  (xZt%-uE9$u30x+:R.a.+zk:R.a.+zk:=MD/%toCix4Y=+PM9I*p!rwr%A:$Rz((6
ez7I;W+*7j)>#t<r2477%v%C-U/7%v%C-U/7\90b7d'bRWi) -57%((E/v$rD((94Uyx8
o+[hy$#<2C$j269%)I'xLWs/y<BxLWs/y<BxZ>mz203%+$uQPh/h23_jXC:xmv_jwrBA:l
)K  :xD6./;9RxD6.CsO*I280SuW2xLWs/y<BxZ>mz203U)$uQuh$xLYX+i:=E*07$;-/xm/_jq
7= v07\) '*Y$.Z=9d 23MgS6b023MgS6b028\TK Mej07X(3E1v$,q+H:H2\Yq+:00*P[
49+xJ280sU>SXlwS/Y<bXlwS/Y<bXlwS/Y<bXz>MZ203%+$UqpH'Xlyx+Ie94 yx#!<)10
'\\2(9[(JbVl:]0lTUVWFM>G<9ZWFM>G<9ZW+O.UJM4UP9c*7!-WF)1-5h# 7)/2\Yq6394Uy=8
oU=7+$#<2C$j269%)I:xLWs/y<BxLWs/y<BxZ>mz203%+$uQPh/h23_jXC:xZ'_vwr%A577$k-[z
F8=Uu:=2'5HYw2BI(,X# 9X%J)7%V%c-u/7\90B7D'BrwI) -5<#=-/b+$Rd((94uYX8
oU=7J$#<2C$j269%)IixLWs/y<BxLWs/y<BxZ>mz203%+$uQuhij23_jXC:xZ'_-wr%A577$k-[z
F8B# 9X%T97%V%c-a[1$o:R.a.+zk:R.a.+zk:=MD/%toCix4Y=+P:RA:zBvwr%A:$Rz((6
ez7IVW+*7j)>#t<r2457%v%C-U/7%v%C-U/7\90b7d'bRWi) -57%((E%S$rD((94Uyx8
oU=7T$#<2C$j23mGs6B023mGs6B023mGs6B028\tk mEJ07x(3e%23_jX>sxmv_jwrBA:l
)\3:=2'5HYwfm>g<sG$r3xLWs/y<BxLWs/y<BxZ>mz203%+$uQPh[xLYX+u>94 YX#!<)10
'#uW+*7j($#t<r24s7%v%C-U/7%v%C-U/7\90b7d'bRWi) -P>#=-/Bj)7\O-'XMV_.p:00*7[
49+x :$M*t:M$IH7\) 'FY$,T/q\0U$#kv<x.fsj#M-'B+$,q+H:Xz'_;WR%a:$rZ((6
eO8%3W+*7j)>#t<r2407%v%C-U/7%v%C-U/7\90b7d'bRWi)%-*<#=-/Bj)7\O-'XMV_.p:00*7[
49+x h$#<2c(J269%)iCid,+g/:r.A.+ZK:r.A.+ZK:=md/%TOcIX4yb+4:ra:ZbVW+3a)$rD((94Uyx8
oU=7H57\) u1:$.z=9DdLWu9/%9ID[69k<9ID[69k<9[oW9SV7'v2,_-Xp9I*p!-i:=E*S7$;-/xm/_jq
7=J280sU>SXI/,<Mm9id[69K<9id[69K<9[Ow9sv7'V2,_3xc9i*P!-I:=e*57$;-! 2\9qpy
3MZj=;w0]$gv0%w0]$7.y<=:=2'SXjwfm>g<9zw+o.ujm43M9C*5!rwf)1-)7\o-uxmv_jwrBA:l
)K  uxD6.#V2]8280Su>sxLWs/y<BxZ>mz203U)$uQ3:RA:zH# 7)v2\yQ+:00*p[
4 3S/280sUw2XI/,<M(9[(Jb-l:r.A.+ZK:=md/%TOcIX4y=+pm9i*P!RWR%a:$rZ((6
eO6%JW0]$GV0%W0]$7$,T/q\>Aw7%v%C-A[M#tuM0'w);3:dajZIRWF)1-5># 7) j$rD(*[XM/_3Q
7] :77Tt29.I64#=0KDp[STWFM>G<Sgv:]md/%TOmUX4yb+jP9i*P!-l:=e*7b#!o)\h$rZ(36
BM8.'v 6
.ends iob_obc_pred_p_a
