** End of subcircuit definition.
************************************
** Library name: rnr_spice_sanjay
** Cell name: iob_obc_pred_cz
** View name: schematic
************************************
.subckt iob_obc_pred_cz opn_a opn_b opn_c opn_d opn_del_a opn_del_b
+opn_del_c opn_del_d opn_del_e opn_e opp_a opp_b opp_c opp_d
+opp_del_a opp_del_b opp_del_c opp_del_d nslew3 gtl0 gtl1 opni_a
+opni_b opni_c opni_d opni_del_a opni_del_b opni_del_c opni_del_d
+opni_del_e opni_e oppi_a oppi_b oppi_c oppi_d oppi_del_a
+oppi_del_b oppi_del_c oppi_del_d pslew1 pslew2 nslew0 nslew1
+loc_vss_pred vccaux opn_x<8> opn_x<7> opn_x<6> opn_x<5> opn_x<4>
+opn_x<3> opn_x<2> opn_x<1> opn_x<0> opp_x<13> opp_x<12> opp_x<11>
+opp_x<10> opp_x<9> opp_x<8> opp_x<7> opp_x<6> opp_x<5> opp_x<4>
+opp_x<3> opp_x<2> opp_x<1> opp_x<0> oppi_x<13> oppi_x<12>
+oppi_x<11> oppi_x<10> oppi_x<9> oppi_x<8> oppi_x<7> oppi_x<6>
+oppi_x<5> oppi_x<4> oppi_x<3> oppi_x<2> oppi_x<1> oppi_x<0>
+opni_x<8> opni_x<7> opni_x<6> opni_x<5> opni_x<4> opni_x<3>
+opni_x<2> opni_x<1> opni_x<0> opn_y opni_y opni_es opni_del_es
+opn_del_es opn_es opp_bs opp_del_bs oppi_del_bs oppi_bs opp_y
+oppi_y opp_e opp_del_e oppi_e oppi_del_e pslew3 nslew2 pslew0
+opp_es opp_del_es oppi_es oppi_del_es vcco gtl2 nslew4 nslew5
+pslew4 pslew5 pslew_lowvcc
.prot FREELIB
7W$3TY/ q*X!J,JWZxih$Os=c9id[69K<C$3TY#Y%K=M'7\KF*c:$#Z=9d 289%)i'Z
$89%)IuxZ/,<m>9[u30x4:m$Z.0#V2=d t,/):m$Zh6<w0][7.y<=Q*z
$hm0s0->g68<;Q=d(l
)CT;*pg66<wfm>g<9zs2y2 $+G/'0E2<sGV:m$i.0#V2]d t,/):m$ih6<w0]$7.y<=Q*z
$69%)I/xi/,<m39$u30xu:]0Ltu;w2BI(,H#T<R2407*kf*Cg3mxy%kz
$hm0s0->g68<;Q]d(l
)CT;*pg860wzXI:$oS=39G'3B#=0kdP/9/T;*p2<sG$r3xZ/,<m(9[u30xP:=0Ltu-q
$=0lTU;W+bi(,h# <r2407Tt+C32w.\So*iGX7Tt+WD/$M* !CP(360Q
$W./.M0/q]6(V6\S[6
e768<;q]D/$,T/q\0U..')o9-A[1$O:\>Aw7Tt2C32w.*So*iGX7Tt2WD/$M*t!CP(360Q
$]0lTUJW2bi(,=#t<r2457*KF*c)$.Z=9d/269%)iIXI/,<Mqr.4<SgQ
$W./.M0/q]6(V6*S[6
e768<;q=Df#>1WFM>G<9ZS2Y2 $+g/'0e2w.\S7hHQ$M* !CeC*p##0-DdXS/t;*PG8d-Q
7W$3TY/ q3Rt%7%v%C-U/6*59%Xp[S[!79.I8641w+Xd6#cS7h*Q$4TfqM3A..')oC[\5[
4#2Y2 .#/O_2)23MgS6b0G68<;:\>Agr4W0][G'W5E:M$zH641)+X7w-/v[KDI:0DS+j%0
'4*59%Dz.)m4V9id[69K<C$3TY#Y%K=M'7Tt+CeC0p#v2=8G'WRE:W./.M0/q]6(V6\[c6
e768<;q=Df#h1WFM>G<9ZS2Y2 $+g/'0e2w.\S7h/Q$M* !CeC)p##0-DdXS/t;*PG8d-Q
7W$3TY/ q3R)%7%v%C-U/6*59%Xp[S[!79.I8641m+Xd6#cS7huQ$4TfqM3A..')oC[\5[
4#2Y2 .#/O_')23MgS6b0G68<;:\>Agr4W0][G'W-E:M$zH641c+X7w-/v[KDI:0DS+j%0
'4*59%Dz.)mpV9id[69K<C$3TY#Y%K=M'7Tt+CeC7p#v2=8G'W3E:W./.M0/q]6(V6\[c6
e768<;q=Df#x1WFM>G<9ZS2Y2 $+g/'0e2w.\S7h1Q$M* !CeCPp##0-DdXS/t;*PG8d-Q
7W$3TY/ q<XlwS/Y<bDI:0DW6K>;\)#v2=D#$M* !Co2HM0S0->G68<;q=_jL
)CT;*pg86[wzXI:$oS=39G'3B#=0kdP/9/T;*p2<sG$r3xZ/,<m(9[u30xP:=0Ltu-q
$=0lTU;W+bi(,h# <r2407Tt+C=2w.\So*iGg7Tt+WD;$M* !CP(36[Q
$W./.M0/q]6(V6\S'6
e768<;q=D $Os=(9g'3=#d r%23MgS6b0G68<;:\>Agr4W+bi(,x# <r2477\KF*cjL
T\kf*C)$#z=9D/289%)IixD6#/;:m$Z.y<=Q%xD6#CsO9.i84/;9Rd l
TCV[c./[6*59%dZ.y8
o!]6(v6*s'9ID[69k<c$3ty#y%k=m'79/%mxD6./$:m$i.y<=Q5xD6.Cs'9.i64/;9Rd;l
T*kf*C:$.z=9D 269%)I'xi/,<mM9$u30xi:]0Lturw2BI(,6%VI\>al
TCV[c./[6*59%di.18
o!]6(v6*sO9ID[69k<c$3ty#y%k=m'79/%mxD6./;:m$i.y<=Q%xD6.CsO9.i64/;9Rd l
T*kf*C:$.z=9D 269%)I'xi/,<mM9$u30xi:]0Lturw2BI(,6%VI\>al
TCV[c./[6*59%di.y8
o!]6(v6*[3Hfq$,t/Q\0u..')O9-a[m#V2]dF#=je:m$ih6413/)269%)IcID,+G/Y
88Dx6tF%c$3ty/Tt6
e768<;q]_h#>1WFM>G<9ZS2Y2 $+g/09.I6641#+Xd6.cS7hFQ$.Z=9dDlwU9/%6
:7w-/v[KDI:0DS2jZ
Fh.')Oc$\7wUe:R.a.+zkQ]6(v79/%mxD6./o_s)2W.*#Q3rV%7*kf*Cg3mxy%kz
$hm0s0->g68<;Q]_0
'4*59%DI =mhV9id[69K<C$3TY#Y%K.2w.*S7h*Q$M*t!CeC(p#t<r24.,TM6K>0
o4TfqM3A..')oC$\L
)CT;*pg6D31p+xLWs/y<Bdi:0dw6k>D$m*TQ3ry%7tT2wdF#$1w2BI(,6%VI\>al
TCV[c./[6*59%di [
4#2Y2 ..:p_:)23MgS6b0G68<;:\>Aw7Tt2CeC0p#v2]8G'WRE:]0lTU/=0d-A[[
a#0-DdXS/t;*PG6d8
o!]6(v6*[3HUq$,t/Q\0u..')O9-a[m#V2]dF#H1w0]$7.)Miv9$u30xsfmCP[s8
_!m3gW-Gs2y2 ..:q
7W$3TY/tT[Rj%7%v%C-U/6*59%Xp[STW0]$G'W-E:M$IH641c+XI/,<Mqr.4<SgQ
$W./.M0/q]6(V6*[y
38i:0ds2J c7P#=0kdP/9/T;*p2<sGV:m$i.)MPv9.i64/o_[)269%)IcID,+G/Y
88Dx6tF%c$3ty/Tt6
e768<;q]_h#x1WFM>G<9ZS2Y2 $+g/09.I6641(+Xd6.cS7h1Q$.Z=9dDlwU9/%6
:7w-/v[KDI:0DS2jZ
Fh.')Oc$gE7%V%c-u/6*59%xP[stw0]$gE7tT2wd#$.z=9DdLWu9/%6
:7w-/v[KDI:0DS2jZ
Fh.')Oc$gt9#=0kdP/9/T;*p2<sG$r3xP[stw0]$gt9#V2]d t,/)<9.i64/)<6
:d6.cSo*iGT9#t<r24P7*KF*ch$.Z=9d%269%)iUXI/,<M>9$U30X4y
8$u30xsfmCP[s##0-dDxs/T;*pg66<kY
38i:0ds2Jr)%7%V%c-u/6*59%xP[stw0]$g'w33v9.i64/o_[Uq$.z=9DdLWu9/%6
:7w-/v[KDI:0DS2je0
'4*59%DI W-E:r.A.+ZKq]6(V79/%MXd6./O_[%Q$M*t!CeC7b1W2bi(,6%vi\>AL
TCV[c./[6*59%di )8
o!]6(v6*[_[)23mGs6B0g68<;:\>aW7tT2cEc7=1w0]$7.)MP3+xi/,<mQR.4<sGq
$W./.M0/q]6(V6*[76
e768<;q]_CPp#=0KDp/9/t;*P2<Sgv:M$I.)m3V9.I64/O_U)269%)iCid,+g/y
88Dx6tF%c$3ty/Tt3z
Fh.')Oc[gt9#D R12A%%P:N7L57%V%c-u/6*59%xP[s[!79[u30x+:=0Ltu3w+BI(,B8
_+BI(,J# <R24)7\kf*C+$m* Q*02W.\sO*Igt9#V2=8gt9#V2=8gv0%s9Bz
$hm0s0->g68<;Q=d(/[
4#2Y2 .#//:n7lP722F[X!J,-WFM>G<9ZS2Y2 $+g/'0e289%)i/Xz/,<M39[U30XUy
8[u30x3:=0Ltuvw+BI(,<#V2=da$m* Q%2L.s#V2=8g[7tT+wd t,//Y
88Dx6tF%c$3ty/ Qkz
Fh.')Oc$gx9#=0kdP/9/T;*p2<sG$r3xP[stw0]$gx9#V2]d t,/F<9.i64/F<6
:d6.cSo*iGX9#t<r24P7*KF*ch$.Z=9d%269%)iUXI/,<M>9$U30X4y
8$u30xsfmCP[s##0-dDxs/T;*pg660kY
38i:0ds2c>23mGs6B0g68<;:\>aGR4w6k>D$m*TQkxD6./;9Rda$m*T!c>2W.*#Q%2L.s8
_2BI(,X#T<R2477*kf*CJ$.z=9DU269%)I:xi/,<mp9$u30xsfmCP[s8
_!m3gW-Gs2y2 ..//Y
e4Z68t2Y
.ends iob_obc_pred_cz
