** End of subcircuit definition.
************************************
** Library name: rnr_spice_sanjay
** Cell name: iob_obc_ctrl_pc_bs
** View name: schematic
************************************
.subckt iob_obc_ctrl_pc_bs cnpd ctsb ff_b loc_vss loc_vdd normal_p term
+term_b ts_b
.prot FREELIB
%/Xd66T! 9-U/7g(PjZ
a77GT%=733=#y<BxaY>+Ht6
eO8$# 0Ym;36*W+*7h)x# 9x*)$,T/q\0U$#kv<9c*5!3l:ra:ZxuW+3a)$rD((94Uyx8
oU= 280SJ)9.i.m$2:=2';$#=0kdP/9# Um02,_-X3sxLYX++W9[FYJ#!O)12\9Q+Y
3MZ)7\) sf2j0'9Q-xLWs/y<BxLWs/y<BxZ>mzwI)%-7>#=-/b:(7\o-uxmv_jwrBA:l
)K C9>i[#S5f[x'/60w+*7T97%V%c-u/7\90Bx4YB+PE9I*p!jJ:=E*S7$;-/xm/_jq
7O[)$#T5u5iG67gt%=733=# 9xHE$,T/q\0U$#kv<9c*5!3l:ra:ZxuW+3a)$rD((94Uyx8
oU=*280SJM97(:\#=0kdP/9#=0kdP/9# Um02,_-X3sxLYX++W9[FYJ#!O)12\9Q+Y
3MZp7\) (j280SP>2xLWs/y<BxLWs/y<BxZ>mzwI)%-7>#=-/b:(7\o-uxmv_jwrBA:l
)K E9[(j=j+:=2'7Hvwfm>g<9zwfm>g<9zw+o.u$uQPh'xLYX++W9[FYH#!O)\H$Rz(36
eO8E# 9x SP7g2<-XzT%3+(9id[69K<9[Ow9#M-[Bj$,q+H/*28)qI:0P*==#!<) 0
'\*U:K$A8%'=397U.-#=0KDpVY#=0KDpVY#tuM02,_-x3SXlyx++w9[fyj#!o)12\9q+y
3Mip7GT%=733=# 9X s97%V%c- v7%V%c- v7*90Bx4YB+PE9I*p!jJ:=E*S7$;-/xm/_jq
7O$h$S*/+x6l77TtqM4'$,T/q\P $,T/q\P $.kv<9c*5!3l:ra:ZxuW+3a)$rD((94Uyx8
oU]/28m'9'Rdi$s*/+X6L77\) [%H$,t/Q\p $.KV<9C*5!3L:RA:zXUw+3Ay$Rd(*[xm/_3q
7O$)$#<23' 2J0'9:r.A.+D;:r.A.+D;:]md/7X(cE v$,q+H/*28)qh:0P*==#!<) 0
'\*j:=.3>1%S29[(J=V+:=2'7j-WFM>G<YDW2O.U$UqUH[H23_Jx($Xz'_5WR%a577$K-[Z
F>.5w+*7HSB#29yMgx7%V%c- v7%V%c- v7*90Bx4YB+PE9I*p!jJ:=E*97$;-! 2\9QPY
3Mi*7\) [/:$sSk[9ID[69;O9ID[69;O9$oW9#m-'bH*7%((e1T$#4(M94 YX#!<)10
'\*,:=2'7hJW+*7h)h#=0KDpVY#=0KDpVY#tuM02,_-x3SXlyx++w9[fyj#!o)12\9q+y
38J9H#/+]p280SP>:xFh6C 69CZYX+uC/xL8_jX($128DC z*6uY=#m2)1-5Bjq
$r$*P!Jj(9$\H#2);bahL
)CuW[xa8.dw+*7H)$#o!c8Z<7x -/bJ5X#=+)1-pijw+J8ZA0'k-[x46_jXC'10
o,*((E1tP7*[!=g(:9qpy
3Mi07tTQm4'$D:s[9ID[69;O9- v7*90Bx4YB+PE9I*p!jJ:=E*S7$;-/xm/_jq
7O[+$M*S0072 d/f:r.A.+ZK:\0U$#kv<9c*7!5I:ra:ZxuW+3aj$rD(*[XM/_3Q
H0[I:MsQ
.ends iob_obc_ctrl_pc_bs
