** End of subcircuit definition.
************************************
** Library name: madan_work
** Cell name: ioi_optinv2_clkpm
** View name: schematic
************************************
.subckt ioi_optinv2_clkpm a<0> clk_m clk_optinv_m1 clk_optinv_m2
+clk_optinv_p1 clk_optinv_p2 clk_p clk_serdes_p1 d<0> d<1> d_b<0>
+d_b<1> ddr_se a<3> a<2> a<1> d<31> d<30> d<29> d<28> d<27> d<26>
+d<25> d<24> d<23> d<22> d<21> d<20> d<19> d<18> d<17> d<16> d<15>
+d<14> d<13> d<12> d<11> d<10> d<9> d<8> d<7> d<6> d<5> d<4> d<3>
+d<2> d_b<31> d_b<30> d_b<29> d_b<28> d_b<27> d_b<26> d_b<25>
+d_b<24> d_b<23> d_b<22> d_b<21> d_b<20> d_b<19> d_b<18> d_b<17>
+d_b<16> d_b<15> d_b<14> d_b<13> d_b<12> d_b<11> d_b<10> d_b<9>
+d_b<8> d_b<7> d_b<6> d_b<5> d_b<4> d_b<3> d_b<2>
.prot FREELIB
%[/280sp(/Xp/9#/-UB+ [
g+:=2'7xRW6b02[_;xPjZ
a77\) s12<9zw%)U-0D8
/C9[(j>rw6B02[_;XpJz
Fhs%\Cw[P$1M+v9pcSX1wOc3cSX1w+*7H7X# 9XjV$8<[Qo>Jv=[s6%p0
'4g=.[8z<7[1(+X #j3E:%D/#j3E:=2'(h# 9x*)$8<[qO>jV=[S6%P0
'4u3m9>lm=c 6C32[,wU!=-GX7\) $*2HMcS7M6j$U*I-/BS$,*I-/B:(7X >)1-)[
a=+:a:ZxuQ
7W>]>)-f:Ki].\#/F4DI$#<2e/XA3G-#+\D/$S%\cW[p$4T#q'7d76k!79cIy=+,y
8CZY=+4Y
38aM\4u'9>LM6Kw%R,g67\) sv2[,Wu!=-2[,Wu!=-gx7CV!c%'W=/9r3x46_3X#6
:48_3xP6
e7Vrk98O4f$S%\qOXA3G/t:=2';x#/F4 78+/f:Ki]74\Y:W.7.bsv3CmM'7Xt-[BEL
Tx -[b+l
)C97kI]77G=.cM2[,Ws29[(jerw%R,Hh#9w%R,Hh#9s[98Dh6-20[do\)#m2) -;[
aM+) -0[
4#%4mf7-#/F4DO$S%\q]XzT%3+(9>lm=c 6C32[,wp!=-2HMcScx.h.\$O:d$*7!]Q
$d[*7!RQ
7W>]>)3$:Ki].\#/F4DI$#<23/V2[,wp!=-2[,wp!=-GX7cv!C%'w=/9R3X46_3x#6
:48_3xP6
e7[Gc 6'=280slP9>lm6Tt W[p..-W7WD78+#M+) -PxRWF=a:Zxu+:=_78O<5<)%0
oU*(3EF+P7%t-/B:(x#tTW[!T8Z(c6
e7[Gc 6'3280sl(9>lm6Tt W[p.\-W7WD78+#M+) -PxRWF=a:Zxu+:=_78O<5<)%0
oU*(3EF+P7%t-/B:(x#tTW[!T8Z(c6
e7[Gc 6[=280sp(IXA3G/v2x8z<6*p:38GH#9Wi=ahZxJ4:r[*P!Jj(9[\H#2);bajL
TxT-[be0X#=2)1-pijw2J8ZA0'k-'z
FhsW#+\ /$#<23/12[,Ws0]778+/939E7.4\y:D[*7!j+p9IZYX++W/xZ 4\D9y0*5[
aM2) -;<JWF]a:Zxu+:]_78O<5<)%0
'4uU>9[(JI;W%r,hH#9W7WD78+#M+)1-)xJWF=a:Zxu+:=_78O<5<) 2,.q+H:1:L
T%T-/b:(X#Ttw[!t8z(36
e7(bJW%r,jH#9W%r,jH#9S[9e7.4\Y:d[*P!V+(9izyx++w/Xz 4\d9Y0*77Xt-/BSPx8
_f]A:zXU+:]_78o<5<) 0
'4uUm9[(JIuWo%6G/0#O!C8z<7X -/BSPx#=+)1-PIJW+j8za0'K-[X46_Jx>/10
o,*((E1tP7*[!=g(:9qpy
38T5<# 9XjV$s%\Cw[P$)Cs!=-2,#Q+h:1:$,\((e1Tp7\[!=G(:9QP:D$*p!v+(6
:l6_Jx($126dc Z*6Uy=8
o!ufe$#<2#ixa3g/k9yp(/6*P:38gh#9wI=AHz>j+:R[*p!jJ(9[\h#2);BAJl
TxT-ubypX#=2)1-pijw2J8ZA0'k-'z
Fhi3L:kI]74\y:kI]74\yQ-xFh6C 69CZYX+i(/xL8_jX($128DC z*6uY=#m2)1-)Xjq
$r$*P!Jj(9$\H#2);bahL
)C;roM#h#9w+*7ep7\) [ J$)Cs!=-2,#QPhs1:$,\((e1Tp7\[!=G(:9Qu:D$*S!5+(6
:l6_Jx($126dc Z*6Uyb8
Xr=$3W%8
.ends ioi_optinv2_clkpm
