** End of subcircuit definition.
************************************
** Library name: madan_work
** Cell name: ioi_sddr_ff1_new
** View name: schematic
************************************
.subckt ioi_sddr_ff1_new ce_b clk_b d grdbk gsr qmbb_out qs1_fb rdq rdq_b
+rdq_out rev sr srq srselq_b synchq
.prot FREELIB
%[J2V1s$:\0U$Sq3H:_0
[x#;29-U/7g(cEVS [
gU:>m2<9ZW%)V:P!J$y
k/2[,Ww6B02[_-XM:_0
[=#%u-Xp/9#/-:B:0d8
/M9[(j=v3:\0u$sQ3(/b:G[
4#mI 2V7\) '%Y$#<2c'V2V1s$:38GJO[29CipJ7X -'Xl8_Jx($128dc Z*6Uy=#M2) 0
o,*((E1tP7*[!=g(:9qpy
38)0B#;'X=2[,Ws[9>LM7dT:38gjo[29cIPj7x -[xL8_jX($128DC z*6uY=#m2) 0
o,*((E1tP7*[!=g(:9qpy
38)0J#;296( 69#+w7:l
)C3p:x G%[w;*_g<4\# /z
FhJ;L:y2P$9'k9Rngx7z5<*IN$#<23uh2'4/2z57($u\((e%:p7% -/b:(X8
_+J8ZA0'k-[x46_jXC/123.Q+h/*:$.:#+N23/_3q
7Wu);7\) [/)$S%\:Ki].-#;29e7.%2$ *X48_Jxc/123#q+H/*:$#:#+n23/_3Q
$d$*P!-+(9iIyx++w/XI 4\d9Y0*7[
4#m( 2g9P %CP;J1/f:b6n$9'%q-Xn>-#O!C7!g%<Wi=a:ZbJ+:r[*P!Jj(6
:z 4\d9Y0*77Xt-/BjPx#=2)1-PIJW2j8za0'K-[Z
FhJvP:>M2/8_s[903_7\) [/)$)Cs N='t7x -/bJpX#=+)1-pijw+J8ZA0'k-[z
$,.Q+h'1:$,*((e1Tp7*[!=G(:9QPY
38))J# 9X )*7\) 'UH$oz5:=2'7<vw7wd'A1S):D[*p!-+(9IZYX++W/xZ 4\D9y0*7[
aM2)1-5xJWF]a:Zxu+:]_78O<5<) 0
'4;I>9=Ue#gSo57;$9'%:b6n.-#;29e7.%2$ *X48_Jx>/123#q+H/*:$#:#+n23/_3Q
$d$*P!V+(9iIyx++w/XI 4\d9Y0*7[
4#m:V280sp)UXAT60W+*7jPI#;'x=2'4/2Z57($U\((EH:P7% -/B:(x# TW[!T8Z(36
:46_Jxe/123.q+H/*:$.:#+n23/_3Q
7WuS97\) [Jt$#<2c/1280sp#:XzT%3hm9e7.%2$ *X48_Jxe/123#q+H/*:L
T\[!=G(:9QP:D$*p!Y+(9IiYX++W/xi 4\D9y0*7[
4#m(J2:Y_S0072a9'W+*7js=# 9x +)74#qxg;J0#M+)1-5xJWF=a:Zxu+:=_78O<5<) 0
oU*((E%:P7%t-/B:(x#tTW[!T8Z(36
e7sh]W<YXU:9<=4903/0%%q-XzT%33e9e7.%2$ *X48_Jxc/123#q+H/*:$#:#+n23/_3Q
$d$*P!-+(9iIyx++w/XI 4\d9Y0*7[
4#m(u280sU([X!:Y0\:=2'7>JW;%N2'4/2Z57($U\((E%:P7% -/B:(x# TW[!T8Z(36
:46_Jxc/123.q+H/*:$.:#+n23/_3Q
7WuE)7\) [Jt$O';[4XzT%3l(96 _60W7WD'a1s):d[*P!-+(9izyx++w/Xz 4\d9Y0*7[
aM2)1-5xJWF]a:Zxu+:]_78O<5<) 0
'\*h:%='g7\) [F+$#<2c'*2<YDW2O.U$Uq+H:Xlyx++w94 yx#!<)10
'\\3:%='g7\) [F)$#<2c'*2<9ZW+O.U$Uq+H:Xlyx++w94 yx#!<)10
'4;h390#8SH%:=2'7EVW+*7h;<#O!C[;8Y-Wi=a:ZbJ+:r[*P!Jj(9[\H#2);bahL
TxT-/bJpX#=2)1-pijw2J8ZA0'k-[z
FhJ5u:B62:09wzB6280Su(/xFh6\V;ux48_jXC/123#Q+h/*:$#:#+N23/_3wI]A:z>j+Y
8IiYX++W/xi 4\D9y0*7[
4##9[(J=5j:=2'5x3W7WD78+#M+)1-sxJWF=a:Zxu+:=_78O<5<) 2,.q+H21:L
T%T-/b:(X#Ttw[!t8z(36
e7sE-W'boz[6D$ 5X;/2\/q%='g60W7WD78+#M+)1-s<JWF=a:Zxu+:=_78O<5<) 0
oU*((E*:P7%t-/B:(x#tTW[!T8Z(36
e7s$;WZYP/m7\) [H:$)cS!=-2,#q+H:1:$,\((E1tP7\[!=g(:9qp:d$*P!y+(6
:l6_Jx($126dc Z*6Uy=8
o!uj+$s<s[9[(jBjJ:38gh#9wI=A:zBj+:R[*p!jJ(9[\h#2);BAH$u*((e%:p[
a=2)1-PIJW2j8za0'K-[Z
FhJ5H:=2'5BUw+*7Jpe#o!c8Z<7x -/bJpX#=+)1-pijw+J8ZA0'k-[x46_jX>/10
o,*((E1tP7*[!=g(:9qpy
38)9i# 9X%:;7[k8=>gv1S$:38gh#9wI=A:zJ-+:R[*p!jJ(9[\h#2);BAH$u*((eUJp[
a=2)1-PIJW2j8za0'K-[Z
FhJ5L:ypN.-#5O>dD\%#o!c8Z<7x -/bJpX#=+)1-pijw+J8ZA0'k-[x46_jXC/10
o,*((E1tP7*[!=g(:9qpy
38)9e#/f4d/$s%\:38gh#9wI=A:zHr+:R[*p!jJ(9[\h#2);BAH$u*(3e%:p7%T-/b:(X8
_2J8ZA0'k-[z
FhJUu:%$2_\0w7wd78+#m+)1-*Xjwf=A:zXU+:=_78o<5<) 2,.Qu:R$*p!jJ(6
:I 4\d9Y0*7[
4#m$u2/8_W<YNGX74#qW[p$U\((E%:P7% -/B:(x# TW[!T8Z(39cIyx+h(/Xl6_Jx($10
o.:#+n23/_3Q
7Wut)7_9[9NO$)cS!=-2,#q+H:J:$,\((E1tP7\[!=g(:9qp:d$*P!Vh(9iIyx++w/Z
$6DC z*6uY=8
o!u*y$#<2C/1280SP#:xFh6C 69CZYX+i)/xL8_jX($128DC z*6uY=#m2)1-)$jq
$r$*P!Jj(9$\H#2);bahL
)C3W$xZt%-u)9[(jB-4:38gh#9wI=A:zH5+:R[*p!jJ(9[\h#2);BAH$u*((e/yp[
a=2)1-PIJW2j8za0'K-[Z
FhJUL:=2'7<vw+*7J5i#o!c8Z<7x -/by)X#=+)1-pijw+J8ZA0'k-[x46_jX>/10
o,*((E1tP7*[!=g(:9qpy
38)(e#%<-xZt%3HW9E7.4\y:D[*p!5+(9IZYX++W/xZ 4\D9y0*77xT-[bJpX8
_f]A:zXU+:]_78o<5<) 0
'4;l(9gU:7\) 'uh$)cS!=-2,#q+H'1:$,\((E1tP7\[!=g(:9qp:d$*P!-+(6
:l6_Jx($126dc Z*6Uy=8
o!uhH$#<23(v280SP#uxFh6C 69CZYX+u(/xL8_jX($128DC z*6uY=#m2)1-5Xjq
$r$*P!Jj(9$\H#2);bahL
)C3#/xu:9<=4c32/8z)f>xFh6C 69CZYX+u(/xL8_jX($128DC z*6uY=#m2)1-5Xjq
$r$*P!Jj(9$\H#2);bahL
)C3EsxN>-#%U-3gWRSw7wd78+#m+) -*Xjwf=A:zXU+:=_78o<5<) 2,.Qi:R$*p!jJ(6
:I 4\d9Y0*7[
4#mS*2_93ST-Xn/-#O!C8z<7X -/B+Px#=+)1-PIJW+j8za0'K-[X46_3xc/10
o,*((E1tP7*[!=g(:9qpy
38)*J#/9c3280SP#:xZt%-u)9E7.#t5C9CZYX+i)/xL8_jX($128DC z*6uY=8
_I]A:z$j+:R$*p!jJ(9$\h#2);BAHl
)C3#sxZt%-+(90#8sh%:B6N$)Cs+m6J$u\((eh:p7% -/b:(X# tw[!t8z(39CiYX+u(/z
$3.Q+h/*:$.:#+N23/_3q
H0[I:MsQ
.ends ioi_sddr_ff1_new
