** End of subcircuit definition.
************************************
** Library name: rnr_spice_sanjay
** Cell name: rcload_deloutn_es
** View name: schematic
************************************
.subckt rcload_deloutn_es in out
.prot FREELIB
%/X7879K<9>*s!5[y
k 2WRSw6B02[_;X)Jz
3p7C :m4'$8QuM6
BM8.'v 6
.ends rcload_deloutn_es
