** End of subcircuit definition.
************************************
** Library name: rnr_spice_sanjay
** Cell name: rcload_predn_es
** View name: schematic
************************************
.subckt rcload_predn_es in out
.prot FREELIB
%/X7879K<9>*9x:Q
%[Xd\%#Y<bXAy$J[y
y12h##VrXx3YBU3Y
e4Z68t2Y
.ends rcload_predn_es
