** End of subcircuit definition.
************************************
** Library name: rnr_spice_sanjay
** Cell name: rcload_predp_x
** View name: schematic
************************************
.subckt rcload_predp_x in out
.prot FREELIB
%/X7879K<9>*sx:Q
%[Xd\%#Y<bXAyjJ[y
y12h##VrXx3Y=;4Y
e4Z68t2Y
.ends rcload_predp_x
