** End of subcircuit definition.
************************************
** Library name: rnr_spice_sanjay
** Cell name: rcload_predp_bs
** View name: schematic
************************************
.subckt rcload_predp_bs in out
.prot FREELIB
%/X7879K<9>*)$:Q
%[Xd\%#Y<bXAyh5[y
y12h##VrXx3YBjHY
e4Z68t2Y
.ends rcload_predp_bs
