** End of subcircuit definition.
************************************
** Library name: rnr_spice_sanjay
** Cell name: rcload_predp_y
** View name: schematic
************************************
.subckt rcload_predp_y in out
.prot FREELIB
%/X7879K<9>*0b:Q
%[Xd\%#Y<bXAy<-[y
y12h##VrXx3YB3+Y
e4Z68t2Y
.ends rcload_predp_y
