** End of subcircuit definition.
************************************
** Library name: rnr_spice_sanjay
** Cell name: rcload_normn_a
** View name: schematic
************************************
.subckt rcload_normn_a in out
.prot FREELIB
%/X7879K<9>*7<:Q
%[Xd\%#Y<bXAy=R[y
y12h##VrXx3YBvq
H0[I:MsQ
.ends rcload_normn_a
