** End of subcircuit definition.
************************************
** Library name: rnr_spice_sanjay
** Cell name: rcload_predn_e
** View name: schematic
************************************
.subckt rcload_predn_e in out
.prot FREELIB
%/X7879K<9>*0E:Q
%[Xd\%#Y<bXAy<][y
y12h##VrXx3YBUuY
e4Z68t2Y
.ends rcload_predn_e
