** End of subcircuit definition.
************************************
** Library name: XI_MacrosLib
** Cell name: xi_invxxx
** View name: schematic
************************************
.subckt xi_invxxx A Y psup nsup
.prot FREELIB
H]=3g\#M2)123.q+:]_78O<5<) 2,#q+:r[*P7\[!=g(:9qpy
3$H$2#$:]0m67*kr]xi>mzwI)Ci$,Q=29[FY.:#+N23/7$;-! 2\9QPY
3[H$2#$:=0m67\kr]xZ>mzwI)CZ$,Q=+9[FY#:#+N23/7$;-! 2\9QPY
e4Z68t2Y
.ends xi_invxxx
