** End of subcircuit definition.
************************************
** Library name: XI_MacrosLib
** Cell name: xi_oai21
** View name: schematic
************************************
.subckt xi_oai21 A1 A2 B Y
.prot FREELIB
H]=3g\#M+5a:$,\((9czg6:#+n23/_3Wi=3*P7X [C_78O<5<) 2,.0((9iIyx8
_I]3g 4\D9y0*77xT')12,.[stw[!t8z(36
ezgb#::5%280s339-U/7\90bX4yU\$:ral87\O-d[;.dc Z*6U$rD(394Uy=8
o+-xZt%;P:-xP/9#y<BxZ>mzwI)CZx7%(f=xZ'_x [c_78o<5<94 Y=#!<)10
'#[p:<X;77\) U 2<9ZW+O.U$UqM+5Xly,\W+3a481/[!=g(:9#!o) 2\9q+y
3$/$2#F:\p $+d;:]MD/7x(I]323_%T:=E*,.0stw[!t8zwr%AH$Rz((6
eIgb# 9x/v$1-W6%P2<YDW2O.U$UqM25Xly,*W+3a461/[!=g(:9#!o) 2\9q+y
3$;77pw'[xZt%vL:\p $.KV<9C*,.[wf)Ii$#4(I]=g 4\D9y02\yQP:00*7[
+!+]6dJ[
.ends xi_oai21
