************************************
** Library name: rnr_spice_sanjay
** Cell name: sim_iostds_diff
** View name: schematic
************************************
.subckt driver clkina clkina_b din1a din2a t1a t2a gsr lat_en_outa lat_en_trista s1_outa s1_trista
+s2_outa s2_trista s3_outa s3_trista s4_outa s4_trista da<31> da_b<31> da<30> da_b<30>
+cbnet1<38> cbnet1<37> cbnet1<36> cbnet1<35>
+cbnet1<34> cbnet1<33> cbnet1<32> cbnet1<31> cbnet1<30> cbnet1<29> cbnet1<28> cbnet1<27>
+cbnet1<26> cbnet1<25> cbnet1<24> cbnet1<23> cbnet1<22> cbnet1<21>
+cbnet1<20> cbnet1<19> cbnet1<18> cbnet1<17> cbnet1<16> cbnet1<15>
+cbnet1<14> cbnet1<13> cbnet1<12> cbnet1<11> cbnet1<10> cbnet1<9>
+cbnet1<8> cbnet1<7> cbnet1<6> cbnet1<5> cbnet1<4> cbnet1<3>
+cbnet1<2> cbnet1<1> cbnet1<0> tsb_s1<0> cnnd1<13> cnnd1<12> cnnd1<11>
+cnnd1<10> cnnd1<9> cnnd1<8> cnnd1<7> cnnd1<6> cnnd1<5> cnnd1<4>
+cnnd1<3> cnnd1<2> cnnd1<1> cnnd1<0> cnpd1<19> cnpd1<18> cnpd1<17>
+cnpd1<16> cnpd1<15> cnpd1<14> cnpd1<13> cnpd1<12> cnpd1<11>
+cnpd1<10> cnpd1<9> cnpd1<8> cnpd1<7> cnpd1<6> cnpd1<5> cnpd1<4>
+cnpd1<3> cnpd1<2> cnpd1<1> cnpd1<0> rnr_pada
+clkinb clkinb_b din1b din2b t1b t2b lat_en_outb lat_en_tristb s1_outb s1_tristb
+s2_outb s2_tristb s3_outb s3_tristb s4_outb s4_tristb db<31> db_b<31> db<30> db_b<30>
+cbnet2<38> cbnet2<37> cbnet2<36> cbnet2<35> cbnet2<34> cbnet2<33>
+cbnet2<32> cbnet2<31> cbnet2<30> cbnet2<29> cbnet2<28> cbnet2<27>
+cbnet2<26> cbnet2<25> cbnet2<24> cbnet2<23> cbnet2<22> cbnet2<21>
+cbnet2<20> cbnet2<19> cbnet2<18> cbnet2<17> cbnet2<16> cbnet2<15>
+cbnet2<14> cbnet2<13> cbnet2<12> cbnet2<11> cbnet2<10> cbnet2<9>
+cbnet2<8> cbnet2<7> cbnet2<6> cbnet2<5> cbnet2<4> cbnet2<3>
+cbnet2<2> cbnet2<1> cbnet2<0> tsb_s2<0> cnnd2<13> cnnd2<12> cnnd2<11>
+cnnd2<10> cnnd2<9> cnnd2<8> cnnd2<7> cnnd2<6> cnnd2<5> cnnd2<4>
+cnnd2<3> cnnd2<2> cnnd2<1> cnnd2<0> cnpd2<19> cnpd2<18> cnpd2<17>
+cnpd2<16> cnpd2<15> cnpd2<14> cnpd2<13> cnpd2<12> cnpd2<11>
+cnpd2<10> cnpd2<9> cnpd2<8> cnpd2<7> cnpd2<6> cnpd2<5> cnpd2<4>
+cnpd2<3> cnpd2<2> cnpd2<1> cnpd2<0> rnr_padb
.prot FREELIB
;[X388/t'%D78%0W;=6G61Df:YaYsxkQ
;/X388/t'%D78%[W;=6G61D$:YaYsxkQ
7O$'07' ;C$;V-#Y%K.2<Sgv:\>Aw7*90b7d'bRWi)V-;E#=-/B)07\O-:XMV_3WRbah$)D((EuS074K-/B+*<#OZKP*P!;IP9e![9q+HU%+L
)KT :x388/T'%32<sGV:\>aW79/%mxi>mz203%+$uQih/h23_jXCsxZ'_-wr%AH$Rz(39E YX+3>ixF/_jXpsv2'oG;-/b))<#ozk0*p!;up6
eO6%;W;=6G61Df:\>Aw79/%MXp[STW2O.UJM4UP9c*;!V4P9i*P!-l:=e*)7$;-[XM/_3W7%a:ZjV4:30*P!RlP9e![Yq+HU/+$)2/<)1-sbRQ
7O$'57' ;C$;V-#Y%K.2<Sgv:\>Aw7*90b7d'bRWi)F-)<RWF)1-5># 7)H2\Yqp:00*774;-/B))<#O<)1-0>RW7n> yx+3>IXfaSZ((Euj0[
492x 2:#'S25P/$+g/09-A[M#Y%K.26\TK Mej07X(#E/+07%((E%v$#4(c94 y=#!<) 2'Yq+HU/+$)Z((EVv074d%%a:ZjV4:3gA/_Jxm'V0
'\*2(5X388/t'%=2<Sgv:\>Aw79/%MXI>MZ203%+$Uq,H:V+$,q+H'H28)qU:0P*77$K-[XfV_Jxm:V2'9q+HIH+$)2/o)1-shRW7n>Uyx+3cIZ
F>.Su'96Z:6*$O5xP[stw6k>D$+G/09$oW9SV7'v2,_]X>iv23_jXCsxZ'_Ywr%AH$Rz(39E YX+3>ixF/_jXpsv2'oG;-/b))<#ozk0*p!;up6
eO6%3$:Y[3..[;'9-A[M#Y%K.2<Sgv:]md/%TOcIX4yE+IPIXlyx+Ue9[fyh#!o) 2\9qp:3P*P!;IP9eUyx+4eIXfaSD((EuS074d%ba:Zj-4y
3MijX[st96Z:6*$O5xP[stw6k>D$+G/09$oW9SV7'v2,_vX(sxLYX+uE9[FYB#!O) 2\9QP:3p*p!;ip9EuYX+4EixFAsd((eUs074D%BA:zJ-4Y
3MijX#5+ydiGy[w6k>D$+G/09-a[m#TUm0'W)-4:DA+ze]wf)1-S<# 7)/2\yQP:00*774;-/b))<#o<)1-0>rw7N> YX+3>ixFAsz((eUJ0[
49+x%:$8\5q]= X79K<9-U/79K<9[Ow9sv7'V2,_5xw2Xlyx+3:=e*7x#!o) 2\9qp:3P*P!;IP9eUyx+4eIXfaSD((EuS074d%ba:Zj-4y
3MZj=]w;=6g61dF:\0u$+zk:\0u$#KV<X.F5<#m-2bT$,Q+huxZ'_3+:0p*77$k-[xFv_jXM:v2'9Q+hih+$)2/O)1-SHrw7N>uYX+3Ciz
F>#SPE96Z:6*$O-xP/9#y<BxP/9# Um0'W)-4:DAyzi#=-/b)$#4()94 Y=#!<) 2'yQ+hu/+$)z((evV074D%%A:zJv4:3Ga/_jXM'v0
'\\23$X388/t'%32<9ZW6b02<9ZW+O.UJM4UP9c*9!uh:ra:Zj# 7)J2\Yqp:00*774;-/B))<#O<)1-0>RW7n> yx+3>IXfaSZ((Euj0[
49+x Y$8\5q]= X79K<9-U/79K<9[Ow9sv7'V2,_5xw9i*P!;W+3ah*7$;-[XM/_3W7%a:ZjV4:30*P!RlP9e![Yq+HU/+$)2/<)1-sbRQ
7O['7<#5+YDIgY0W6b02<9ZW6b028\TK Mej07X()E*23_Jxm9[fy$#!o) 2\9qp:3P*P!;IP9eUyx+4eIXfaSD((EuS074d%ba:Zj-4y
3MZj=vw;=6g61dF:\0u$+zk:\0u$#KV<X.F5<#m-2bT97%((eU28)Qi:0p*77$k-[xFv_jXM:v2'9Q+hih+$)2/O)1-SHrw7N>uYX+3Ciz
F>#SPM96Z:6*$O-xP/9#y<BxP/9# Um0'W)-4:DAyzi5wf)1-S7\o-:xmv_3wrBAH$)d((eUs074k-/b+*<#ozkp*p!;ip9E![9Q+hu%+l
)K  [%2:#'s25p/$+zk:\0u$+zk:=MD/%toCix4Yi+H#ixLYX+i:=E*)7$;-[xm/_3w7%A:zJv4:30*p!rLp9E![yQ+hu/+$)2/<)1-SBrq
7O['7=#5+YDIgY0W6b02<9ZW6b028\TK Mej07X(wEJE07%((E/28)ql:0P*77$K-[XfV_Jxm:V2'9q+HIH+$)2/o)1-shRW7n>Uyx+3cIZ
F>#SP(96Z:6*$O-xP/9#y<BxP/9# Um0'W)-4:DA)z>;wf)1-)7\o-'xmv_3wrBAH$)d((eUs074k-/b+*<#ozkp*p!;ip9E![9Q+hu%+l
)K  (x388/T'%32<9zw6B02<9zw+o.ujm4up9C*(!5,p9I*p!vw+3AJ$Rd(394uY=#oO)1-SHrw7BA:z<Y4:3Gav_jXM:v2'oGk-/b)5<8
oU=7:G7' ;c$;v1#y<BxP/9#y<BxZ>mz203%+$uQJh2f+$,Q+h:xZ'_-wr%AH$Rz(39E YX+3>ixF/_jXpsv2'oG;-/b))<#ozk0*p!;up6
eO8%J$qjX388/t'%=2<9ZW6b02<9ZW+O.UJM4UP9c*s!y3:ra:Zh# 7)%2\Yqp:00*774;-/B))<#O<)1-0>RW7n> yx+3>IXfaSZ((Euj0[
49+x%;$8\5q]= g79K<9-U/79K<9[Ow9sv7'V2,_ux)(V23_Jx>9[fy>#!o) 2\9qp:3P*P!;IP9eUyx+4eIXfaSD((EuS074d%ba:Zj-4y
3MZj=[w;=6g61d$:\0u$+zk:\0u$#KV<X.F5<#m-$by;<#=-/bs$#4(>94 Y=#!<) 2'yQ+hu/+$)z((evV074D%%A:zJv4:3Ga/_jXM'v0
'\\2396z:6*$o5Xp/9#Y<bXp/9# uM0'w)-4:daYZI5WF)1-s7\O-:XMV_3WRbah$)D((EuS074K-/B+*<#OZKP*P!;IP9e![9q+HU%+L
)K  'x388/T'%=2<9zw6B02<9zw+o.ujm4up9C*9!UH:RA:zJ# 7)/2\yQP:00*774;-/b))<#o<)1-0>rw7N> YX+3>ixFAsz((eUJ0[
49+xu2:#'S25P;$+ZK:\0U$+ZK:=md/%TOcIX4y$+j:ra:Zj# 7)J2\Yqp:00*774;-/B))<#O<)1-0>RW7n> yx+3>IXfaSZ((Euj0[
49+x/2:#'S25P;$+ZK:\0U$+ZK:=md/%TOcIX4y$+j:ra:Zj# 7) v$rD(394Uy=#Oo)1-shRW7ba:Z<y4:3gAV_Jxm:V2'OgK-/B)5<8
oU=7+$8\5Q]= G79k<9-u/79k<9[oW9SV7'v2,_5XW2xLYX+3:=E*97$;-[xm/_3w7%A:zJv4:30*p!rLp9E![yQ+hu/+$)2/<)1-SBrq
7O['97' ;C$;V1#Y<bXp/9#Y<bXz>MZ203%+$UqhH$Xlyx+3:=e*97$;-[XM/_3W7%a:ZjV4:30*P!RlP9e![Yq+HU/+$)2/<)1-sbRQ
7O['(7' ;C$;V1#Y<bXp/9#Y<bXz>MZ203%+$UqhH$Xlyx+3:=e*7x#!o) 2\9qp:3P*P!;IP9eUyx+4eIXfaSD((EuS074d%ba:Zj-4y
3MZj>#5+ydiGy[w6B02<9zw6B028\tk mEJ07x()e*y$,Q+huxZ'_3+:0p*77$k-[xFv_jXM:v2'9Q+hih+$)2/O)1-SHrw7N>uYX+3Ciz
Fh>;w6B02<9zw6B0280SP3[ 2<ydw6%p2<9zw6B02<9zw6B0280SL#[xZt%Y4W98Dx6S5!o4Fl
)CH#9-u/79k<9-u/7\) [ H579;O9- v79k<9-u/79k<9-u/7\) ( V$#<2E2h2hm0s y8o\)8
o!s/2v-M33+x x601M[)2v-M3(+x x601M/)2v4\P[9p78B0wzB6231Ss9=dD\%0q
$r='.0\S Y8UJ-#v2-XA3Gc [C32[,w#+-XpVY#Y<bXpVY#Y<bXU76T! -XU76s5!b7/L
TzuQm4'x7zuQX67/%0w<udD\%0w<ud':4z2[90s.m$2[90s.%'#<X32j=0w '30
o#<2e( 2/4kSo%6G>r4SuMP(3[
4#wS12V1m33+X g601m[)2V1m3(+X g601m/)2V4\p'9P78b[WZb6231sS9=Dd\%[Q
$r='.0\S Y8UJ1#v25XA3Gc 'C32[,w#+5XpVY#Y<bXpVY#Y<bXU76T! 5XU76s5!b7;L
TzuQm4'G7zuQX67/%[w<udD\%[w<ud':4z2'90s.m$2'90s.%'#<X=2j=[w '=0
o#<2#[H2/4kSo%6G>r4SuMP(3[
4#eIXAX#<2chuv%7gf+*7j#juE:K3zT%-1m2)2[-\) 'R)0p#/[=2'5W;IV9>/80sU_UuQL
TGF+*7J#J-e:k3Zt%-1M[)2[-\) 'r)pP#/[=2'5w-,v9>/80Su_'hq$s0 9X%c5i1q
$K3zT%-1c2)2[-\) 'Rj0p#/[=2'5W-IV9>/80sU_'uQ$S0 9x%C5b1W%-[(JbmU3+Z
$[-\) 'rJpP#/[=2'5w3,v9>/80Su_[hq$s0 9X%c7i1w%-[(jBMP)+xax#<2CH +%[
a/[=2'5W3IV9>/80sU_[uQ$S0 9x%C7b1W%-[(Jbmp3+XAX#<2ch :%7gf+*7j#E1Q
$K3zT%-1e+XAX#<2ch*Q$S0 9x%C9p#/[=2'5WRE:K3zT%-1>+XAX#<2chuQL
TGF+*7J#B1w%-[(jBMPv9>/80Su_/)2W\$oQm4'x79/%54F$+G/09[(j=jL(9-a[1$oY
8-a[m#5+ydiGy/#+X32j90s<'r:%7G +%%c7J1w%=[ 5w3uv9>Z8y-13[)0
oS\ o'RhPp#/+=Pj#E1W%=[ 5WyE:K[zVbmjV9>z8Y-1)+XA8#DU_I)2[#\;ch/QL
TG +%%cSP#/+=pJ#B1w%=[ 5w3e:k[ZvBM+v9>Z6y-13()2[#*;CH V%7G 2%%c7i1q
$K[IVbmp)+XA8.DU_[VQ$S\to'Rh)p#/+]Pj#=;E:K[IVbmpc+XA8.DU_[ QL
TG 2%%c7X1w%=$ 5w]e:k[ivBMLv9>Z6y-1W+xa8.du_2)2[#*;CHvq$s\TO'rs%[
a/+]Pj#j1W%=$ 5W-E:K[IVbmpV9>z6Y-1(+X7w-/vRxida4gS<WmGw8cdy
38y$s0 9X cS>1w%-[(j=M3W+xax#<23HUy%7GF+*7H#Jre:k3Zt%31M:)2[-\) [r)SP8
_%-[(j=M3C+xax#<23HUH%7GF+*7H#Jje:k3Zt%31C()2[-\) [rJ*P#/[=2'7w-Jv6
:AX#<23h%Y%7gf+*7h#bRE:K3zT%31c:)2[-\) [Rjsp#/[=2'7W-UV9>/80sp_' QL
TGF+*7H#Bje:k3Zt%313()2[-\) [rH*P#/[=2'7w3Jv9>/80SP_[jq$s0 9X c7<1q
$K3zT%313:)2[-\) [Rhsp#/[=2'7W3UV9>/80sp_[ Q$S0 9x C7x1W%-[(J=m,V6
:AX#<23hHQ$S0 9x C(p#/[=2'7W5E:K3zT%31P+XAX#<23h/Q$S0 9x Csp8
_%-[(j=Muv9>/80SP_[)2[-\) [r:%7t9r3dD\%[w6k>;\)#y%k.280SP(s%2<sG$r3z
$<sGV:y[3..[;Qw['G7Sk[c0H#X1w%=[ 7w33v9>Z8y313')2[#\;3H H%[
a/+=Ph#=JE:K[zV=m,V9>z8Y31e+XA8#Dp_$)2[#\;3hJQ$S\ o[R+%7g +% C)p8
_%=[ 7w;e:k[Zv=Muv9>Z8y313+xa8#dP_/)2[#*;3H e%7G 2% c7>1w%=$ 7w3Jv6
:A8.Dp_[JQ$S\to[Rh0p#/+]Ph#=VE:K[IV=mpm+XA8.Dp_[%Q$S\to[Rh7p8
_%=$ 7w3+v9>Z6y31#+xa8.dP_s)2[#*;3H*q$s\TO[ry%7G 2% c0P#/+]pH#H1q
$K[IV=m3V9>z6Y31c+XA8.Dp_[)2[#*;3h1Q$4TfqM4'3M2#%C07>6T5!nZ
a)7' ;c$;v6C  -xP/9#/-uby6[
g+:Y[3..[;qW['g79K<9>*s!5ty
38V;79k<9-u/79k<9-u/7\) [ :079k<9-u/79k<9-u/79k<9- v79k<9- v79;O9-u/79;O9-u/7' ;c$;v-#y%k=m'[
a 9x hPh# 9xFt(7\) [ hP79/%MXp/9#Y%K=M'79/%MXp/9##0-D78.$2q-4\ 0'Q
7WHv$+ZK:\0U$+ZK:\0U$#<23/1t$+ZK:\0U$+ZK:\0U$+ZK:\P $+ZK:\P $+D;:\0U$+D;:Y[3..[;[9-U/79/%54fL
T\) [ :(7\) [ :;7\) [1:779/%mxP/9#y%k=m'79/%mxP/9##0-d78.$2Q-4\ 0'q
7W t$+ZK:\0U$+ZK:\0U$#<23[ +$+ZK:\0U$+ZK:\0U$+ZK:\P $+ZK:\P $+D;:\0U$+D;:Y[3..[;'9-U/79/%54fL
T\) [ H97\) [ H)7\) [ H(79/%mxP/9#y%k=m'79/%mxP/9##0-d78.$2Q-4\ 0'q
7WV:$+ZK:\0U$+ZK:\0U$#<23[ v$+ZK:\0U$+ZK:\0U$+ZK:\P $+ZK:\P $+D;:\0U$+D;:\0U$8\5q]= g79/%54fL
T\) [ H;7\) [ Jp7\) [ HS79/%mxP/9#y%k=m'79/%mxP/9##0-d78.$2Q-4\ 0'q
7O['5=#5+YDIgY/#+x32<9ZW6b02<9ZW+O.UJM43m9c*(!-j:ra:Zh# 7) Y$rD((94Uy=8
o+:x388/T'%d78%[w6B02<9zw6B028\tk mE)S7x(We%T$,Q+h:xZ'_3H:0p*p7$k-[z
F,B# 9X :*>#VU0EgWRSF:oh4h8<wI)1-57%(W[xuYX+uC9Ma6_d[Uk$o*7Km;)p\>u'9E6
:O:_3WuKahL
)xP:=2'*<Uw+*7Hp>jwUsC7:0#m-/bH*7%(C/12/_jX3sxo[.Q;to>i>>#9IyA  \x5Usz
$>8QP:o>*7[
4M(9[(J>5l:=2'7xyU:OH4H8<Wi)1-7>#=-'1:$9q+H[H2>S*(ojmA6\yWud6*VdkM;OH0
o\'(39mAy=8
oI[/280SP((h2W\$oQm4'G7KLIw6($uQ+h'xLYi3w<)1-5B#9%]A  \GTUsxo,8Q;toC3>>8
_UyAH$\G(36
e77<uW6%P2<9ZW6b02<9ZW0]3280sp(SH2<9ZW6b02<9ZW!M3Gwrs9R3Z
FhB#yO%xP/9#y<BxP/9#V25xZt%3+#sxP/9#y<BxP/9##0-dD\%K!76
BM8.'v 6
.ends driver
