** End of subcircuit definition.
************************************
** Library name: rnr_iob
** Cell name: iob_tlvsht1_33
** View name: schematic
************************************
.subckt iob_tlvsht1_33 A V Y1 Y1_vdd Y2 por_b
.prot FREELIB
7=%2eb#:3C- V79K<9-U/7\90b7d'j;Wi)V-;>#=-/BS$#4(c94 y33WRbahL
)K  /xP/9#:39OJ$+zk:=MD/%toMux4Y=#=-/bs$Rd((94uYX8
o+[x#77[w6B02<9zw+o.ujm43M9C*0!]L:RA:zH# 7)%2\yQ6394uY=8
o2'x#57pP:\xP$.KV<X.FSJ#m-/by$,QP:0p*p7$k-/z
F6=#:39OJ$+#y:]MD/%toMux4YX+H:RAH$Rd((94uYX8
oU]7:$23w2m6gx79w69$oW9SV7uU2,_jXp'xLYX+uE94 YX#!<)10
'.#:3C- V7[W6%P2<YDW2O.U$Uq+HIJ23_Jx($XMV_JWRba:L
)\w8[dPvy#$:\0u$+zk:=MD/7x((e%V$,Q+h/*2\yQ+:00*p[
+!+]6dJ[
.ends iob_tlvsht1_33
