** End of subcircuit definition.
************************************
** Library name: rnr_spice_sanjay
** Cell name: iob_obc_ctrl_pc_a
** View name: schematic
************************************
.subckt iob_obc_ctrl_pc_a cnpd ctsb ff_b loc_vss loc_vdd mcpd normal_p term
+ts_b
.prot FREELIB
%/Xd66T! 9-U/7g(PE%\L
s3w%]>Zj8%P:\0u$sQ,hi_0
'\\4:M$GwrsWTjD/$,T/q\0U$+ZK:=md/7X(cE1+$,q+H/*28)qU:0P*==#!<) 0
'\*4:M$GwrsWTjD/$,T/q\P $+D;:]md/7X(cE1+$,q+H/*28)qI:0P*==#!<) 0
'\\U:K$A8%'=397U.-# 9x h77%v%C-U/7\90bX4yb++P9i*P!Jj:=e*)7$;-! 2\9qpy
3MZ*7\) sU280SPp[xLWs/y<BxLWs/y<BxZ>mzwI)%23_jX($xZ'_;wr%A:$Rz((6
eO8j# 0Ym;36*W%]>zJ8%p:=2'*>#=0KDp/9# uM02,_-x(IXlyx++w9[fyh#!o)\h$rZ(36
eO8I# 9xFh$0D56C323MgS6b023MgS6b028\TK:dajZxRWF)1-PI# 7)/2\Yq6394Uy=8
oU=1280S,p9Ma60#=0kdP/9#=0kdP/9# Um02,_-X(ixLYX++W9[FYH#!O)\H$Rz(36
eO8E# 9x h07g2<-XzT%y3:r.A.+ZK:=md/7X(c9i*P!Jj:=e*s7$;-/XM/_JQ
7O[Y$#T5u5iG67\) [ +$#<2#[XlwS/Y<bXz>MZWi)%-P<#=-/B:(7\O-:XMV_.p:00*7[
49+:XzT%yl:*P3<7%v%C-U/7%v%C-U/7\90bX4yb++P9i*P!Jj:=e*)7$;-! 2\9qpy
3MZ77\) [ H$m*s007280S,p9ID[69k<9[oW9#m-'b:07%((e1T$#4(>94 Y33wrBAHl
)KT#9[(j=34:=2'7<3wfm>g<ydwfm>g<ydw2o.u$uQuh/v23_jX($xZ'_vwr%A577$k-[z
F>.5w+*7H7e#)Oy-23mGs6%p23mGs6%p26\tk:DAJzXrwf)1-pi# 7)h2\yQ6394uY=8
oU]%2[.G  yIH$%zs[9ID[69;O9ID[69;O9$oW9#m-'b:07%((e1T$#4(>94 Y33wrBAHl
)KT>9[D:\[=Q]xa6s\2;R 280SPM[xLWs/yO%xi>mzwI)%-p<#=-/b:(7\o-sxmv_.P:00*7[
492UXzT%33392 :+/f:r.A.+D;:r.A.+D;:]md/7X(cE1+$,q+H/*28)ql:0P*==#!<) 0
'\*+:K$A8%'=39mA60#=0KDpVY#=0KDpVY#tuM02,_-x(IXlyx++w9[fyh#!o)\h$rZ(36
eO6=#/2K[':,3W0]Dd\%#=0KDpVY#=0KDpVY#tuM02,_-x(IXlyx++w9[fyh#!o)\h$rZ(36
eO6I# 0Ym;36*W+*7h7<# 9x h;7%v%C- V7*90bX4yb++P9i*P!Jj:=e**7$;-! 2\9qpy
3Mi*7\) [ +$sSk[9ID[69;O9ID[69;O9$oW9#m-'b:07%((e1T$#4(>94 Y33wrBAHl
)Cu):xa8.dw+*7H0=#o!c8Z<7x -/bJ5X#=+)1-pijw+J8ZA0'k-[x46_jXC'10
o,*((E1tP7*[!=g(:9qpy
38J)>#)Oy-2ty'yQ-xFh6C 69CZYX+uC/xL8_jX($128DC z*6uY=#m2)1-5Bjq
$r$*P!Jj(9$\H#2);bahL
)CuW[xa8.dwUk$ $\GT99E7.#[ O'x48_jXC'123#Q+h/*:$#:#+N23/_3wI]A:zB-+Y
8IiYX++W/xi 4\D9y0*7[
4#c$u2J0'9:O>IV7<;;\XfH6\$+%%2,#q+H'%:$,\((E1tP7\[!=g(:9qp:d$*P!-U(6
:l6_Jx($126dc Z*6Uy=8
Xr=$3W%8
.ends iob_obc_ctrl_pc_a
