** End of subcircuit definition.
************************************
** Library name: rnr_spice_sanjay
** Cell name: iob_obc_pred_p_d
** View name: schematic
************************************
.subckt iob_obc_pred_p_d loc_vss loc_vccaux loc_vcco opp opp_del oppi
+oppi_del pslew0 pslew1 pslew2 pslew3 pslew4 pslew5 pslew_lowvcc
.prot FREELIB
7O['7># 9x S(7*KF*c:$#<23I 23MgS6b028\TK Mej07X(3E123_Jx>94 yx#!<)10
'\\23(XzT%3439$U30X+:r.A.+ZK:r.A.+ZK:=md/%TOcIX4y=++:ra:Zh#!o)12\9q+y
3MZjBjw+*7H0<#T<R2477%V%c-u/7%V%c-u/7\90B7D'BrwI) -77%((e/2\yQ+:00*p[
49+x t$#<23IF23MgS6K>;\)#=0KDp/9#=0KDp/9# uM0'w)-4:dahZbRWF)1-5I#!o)12\9q+y
3MZj$# 9X yS7%V%c-u/7%V%c-u/7%V%c-u/7\90B7D'BrwI) -7H#=-/b+$Rd((94uYX8
oU=7V$#<232*23mGs6k>;\)#=0kdP/9#=0kdP/9# Um0'W)-4:DAHzBrwf)1-5i#!O)12\9Q+Y
3MZje# 9X T77*kf*C:$#<23$v23mGs6B028\tk mEJ07x(3e123_jX>94 YX#!<)10
'\\23:XzT%3jP9$U30X+:r.A.+ZK:r.A.+ZK:=md/%TOcIX4y=++:ra:Zh#!o)12\9q+y
3MZj=5w+*7H(e#T<R2477%V%c-u/7%V%c-u/7\90B7D'BrwI) -77%((e/2\yQ+:00*p[
49+x +$#<23Su23MgS6b0280sp)UXlwS/Y<bXz>MZ203%+$UqpH[/23_JxP94 yx#!<)10
'#3j>9[(J=y3:]0lTU-WFM>G<9ZWFM>G<9ZW+O.UJM4UP9c*7!Jl:ra:ZhyWR%a:$rZ((6
eO8%33:M$I.Y<=:M$IH6D)F9[(J=],:r.A.+ZK:=md/%TOmUX4y=+j:ra:Zh# 7)%2\Yq6394Uy=8
oU=7+$#<2C/*269%)I:xLWs/y<BxLWs/y<BxZ>mz203%+$uQPh/h23_jXC:xZ'_-wr%A577$k-[z
F>#SPC9[(j=],:]0Ltu/=0D-a[7%V%c-u/7%V%c-u/7\90B7D'BrwI) -(7%((e%s$#4(C94 Y33wrBAHl
)K  'xZt%-+W9$u30x4:R.a.+zk:R.a.+zk:=MD/%toCix4YB+J:RA:zBvwr%A:$Rz((6
eO8%uW+*7jPI#=0KDp/9# 9x%t77%v%C-U/7\90b7d'bRWi) -7h#=-/B+$rD((94Uyx8
o+$xZt%-+W9$u30x3:R.a.+zk:R.a.+zk:=MD/%toCix4Y=++E9I*p!-i:0p*p7$k-/z
F8=Yi:=2'5XUw2BI(,X# 9X s(7%V%c-u/7\90B7D'BrwI) -p7%((e/2\yQ+:00*p[
4 c9[(JbJj:r.A.+g/'0e280spP(XlwS/Y<bXz>MZ203%+$UqpH'V23_Jxc$XMV_JWRba:L
)K  [ 280SuCuxi/,<mQR.4<sGwfm>g<9zwfm>g<9zw+o.ujm4up9C*7!Uwf)1-5H# 7)%2\yQ6394uY=8
o+[hy$#<2C/*269%)I'xLWs/y<BxLWs/y<BxZ>mz203%+$uQPh/h23_jX>sxmv_jwrBA:l
)\H:=2'7>;w2BI(,J#=0kdP/9#=0kdP/9# Um0'W)-4:DAHzXYwf)1-5H#!O)12\9Q+Y
3MZjH#V2]d t,#V2]8gv0%w+*7Jpi#=0kdP/9# Um0'W);3:DAJzBrwf)1-)7\o-uxmv_jwrBA:l
)K  /xZt%3LM9$u30xi:R.a.+zk:R.a.+zk:=MD/%toCix4Y=++E9I*p!-i:=E*57$;-! 2\9QPY
3MZjJ#V2]xD6.Cw+*7H*J#=0kdP/9# Um0'W);3:DAJzBrwf)1-)7\o-uxmv_jwrBA:l
)\PEixZt%-+W9$u30xP:=2'7<rwfm>g<9zw+o.ujm4up9C*7!3wf)1-)7$;-/xm/_jq
7O['77\) [H)$.Z=9dV23MgS6b023MgS6b028\TK Mej07X(cE*23_Jxc:XMV_JWRba:L
)K  [12W.*w0]$7$#<2C'U23mGs6B028\tk mE)S7x(3e*23_jX>9[FYB#!O)\H$Rz(36
ez7I;W+*7h*j#t<r2477\) [*E$,T/q\0U$#kv<x.f5<#M-[Bh$,q+H:XMV_JWRba:L
)\PW'xZt%3LM9$u30x+:=2'7i3wfm>g<9zw+o.ujm4up9C*7!jwf)1-)7$;-/xm/_jq
7=u280speUXlwS/Y%K=M'7\) [Jt$,T/q\0U$#kv<x.f5<#M-[Bj07%((E%t$rD((94Uyx8
oU=7J77\) '*H$,t/Q\0u$,t/Q\0u$,t/Q\0u$#KV<X.F5<#m-[bH)7%((ev2\yQ+:00*p[
492x12w.*So*i2w.*#:r.A.+g/09id[69/%MXI>MZ203u)$UqUH:V23_JxcSXz'_5WR%a577$K-[Z
F6=jP:m$i$m*T!9ID[69/%mxLWs/y%k.26\tk mE)S7x(Ce/+$,Q+h'h28)QH:0p*==#!<) 0
Zr\t;M70
.ends iob_obc_pred_p_d
