** End of subcircuit definition.
************************************
** Library name: rnr_iob
** Cell name: iob_sstl_hstl_buf
** View name: schematic
************************************
.subckt iob_sstl_hstl_buf data_in enable out_comp out_true vccaux vref
.prot FREELIB
7Wu2T#[fF*XzT%;4:=2'sx#vRxDAw\*W007GJ8$):W./.Yc[T'>Ow9#M2[ahZ<#M2UahZIRWi]%*P!RWi]/*7!5WiCP7 dqUH[X4.9T!;K2*)!JWi=%*7!3U:d[hyx+ly
38 hD:w9==/30#y;*_2v1S$Qw[280S3(9-a[1$o:w./.yC[tc=o6[
4#oW_\.-#)+53lT7D$ 5D787959jXzT%;4:\>Agr4W!M3GV4:[q5mIL
!$ 2y.'l
.ends iob_sstl_hstl_buf
