** End of subcircuit definition.
************************************
** Library name: rnr_spice_sanjay
** Cell name: iob_obc_del_n_d
** View name: schematic
************************************
.subckt iob_obc_del_n_d in loc_vss loc_vccaux out
.prot FREELIB
7O[h$M$2:_k23MgS6b023MgS6b028\TK Mej07X(3E1)$,q+HUXMV_JWRba:L
)K (9KX$4\wfm>g<9zwfm>g<9zw+o.ujm4up9C*77%((e%s$Rd((94uYX8
oU]12WRSwj_xLWs/y%k=m'7%V%c-a[1$o:]MD/%toCix4YB#=-/bJ)7\o-'xmv_.P:00*7[
492[Xx+7c :r.A.+g/'0e23MgS6K>;\)#tuM0'w)-4:dahZx-WF)1-sI#!o)12\9q+y
e4Z68t2Y
.ends iob_obc_del_n_d
