** End of subcircuit definition.
************************************
** Library name: rnr_spice_sanjay
** Cell name: iob_obc_ctrl_pc_c
** View name: schematic
************************************
.subckt iob_obc_ctrl_pc_c cnpd ctsb ff_b loc_vss loc_vdd mcpd normal_p term
+ts_b
.prot FREELIB
%/Xd66T! 9-U/7g(>E%\L
s3w%]>Zj8%P:\0u$sQHhu_0
'\\4:M$GwrsWTjD/$,T/q\0U$+ZK:=md/7X(cEuY$,q+H/*2\Yq+:00*P[
492IXd66T! 9_\.-#=0KDpVY#Yo%XI>MZWi)%-s$#=-/B:(7\O-'XMV_.p:00*7[
49+$XzT%u,:*P3<60WFM>G<9ZWFM>G<9ZW+O.U$UqUHUJ23_Jx($Xz'_-WR%a577$K-[Z
F>#]w+*7H7<#/ B3280SP(uxLWs/y<BxZ>mzwI)1-*$#=-/b:(7\o-:xmv_.P:00*7[
49+UXzw8k$FC$2[.g  Yih$#<23/*23MgS6b028\TK:dajZj5WF)1-PI# 7)%2\Yq6394Uy=8
oU=1280S,39Ma60#=0kdP/9#=0kdP/9# Um02,_-XM2xLYX++W9[FYB#!O)\H$Rz(36
eO8=# 9xF+$M*S007280s,39id[69K<9[Ow9#M-'B)97%((E1t$#4(c94 y33WRbahL
)K )9[D:\[=Q]xZt%3Pp9[(ji]wfm>g<9zw+o.u$uQuhuj23_jX($xZ'_-wr%A577$k-[z
F>#Yw+*7HpJ# 9X +77%V%c-u/7%V%c-u/7\90Bx4YX+L)9I*p!jJ:=E*)7$;-! 2\9QPY
3MZ)7\) [1T$0d569ID[69k<9ID[69k<9[oW9#m-'b)97%((e1T$#4(C94 Y33wrBAHl
)K C9>i[#S5f[x'/60w+*7e07%V%c-u/7\90Bx4YB+3)9I*p!jJ:=E*57$;-! 2\9QPY
3Mi;7\) [ +$#<23i 23mGs6%p23mGs6%p26\tk:DAJzJ5wf)1-pi# 7)%2\yQ6394uY=8
oU] 2[.G  yIH$m*s00723mGs6%p23mGs6%p26\tk:DAJzJ5wf)1-pi# 7)%2\yQ6394uY=8
oU]j280SPCsx(v89wfm>g<ydwfm>g<ydw2o.u$uQuhuj23_jX($xZ'_vwr%A577$k-[z
F>.Uw+m6oG,/T:=2'7=rw+*7H5>#=0kdPvy#TUm02,_-XM2xLYX++W9[FYH#!O)\H$Rz(36
eO6b#/2K[':,3W bD/$,T/q\P $,T/q\P $.kv<9c*5!;h:ra:ZxuW+3aj$rD(*[XM/_3Q
7O$v$#<23[V2[%Zf:r.A.+D;:r.A.+D;:]md/7X(cEuY$,q+H/*28)qU:0P*==#!<) 0
'\*3:=2'7hVW9%6p.-#=0KDpVY#=0KDpVY#tuM02,_-xm2Xlyx++w9[fyh#!o)\h$rZ(36
eO6h# 0Ym;36*W%]>zJ8%p:=2'7hVWFM>G<YDW2O.U$UqUHUJ23_Jx($Xz'_VWR%a577$K-[Z
F>.jw%]>Zj8%P:o>it7%V%c- v7%V%c- v7*90Bx4YB+3)9I*p!jJ:=E*57$;-! 2\9QPY
38J9H#/+]p280SPp[xFh6C 69CZYX+uC/xL8_jX($128DC z*6uY=#m2)1-5Bjq
$r$*P!Jj(9$\H#2);bahL
)Cu>sx(v89w9%6P.-#o!c8Z<7x -/bJ5X#=+)1-pijw+J8ZA0'k-[x46_jXC'10
o,*((E1tP7*[!=g(:9qpy
38J(J#29yM2>s*;:*p3<74#Q==ZvB#m+)1-5Bjwf=A:zXU+:=_78o<5<) 2,.Q+h'%:l
T%T-/b:(X#Ttw[!t8z(36
e75I3W%=$ $\gto9mA60#O!C[;8Y-Wi=a:Zb-+:r[*P!Jj(9[\H#2);bah$U*((E%jP[
a=2)1-PIJW2j8za0'K-[Z
-\#*50Xz
.ends iob_obc_ctrl_pc_c
