** End of subcircuit definition.
************************************
** Library name: rnr_spice_sanjay
** Cell name: iob_obc_lvlsh_n_d
** View name: schematic
************************************
.subckt iob_obc_lvlsh_n_d in init_vccaux_lvlsh_b loc_vss loc_vccaux loc_vdd
+out
.prot FREELIB
%'X\V-wWFM>G<9ZW%)/-5d8
/(98Zx7%V%c-u/7G(3ubV [
g3:=2'g7%v%C-U/7g(wEV\L
)KTM98Zx7C :R.a.+d;:R.a.+d;:]MD/7x((efT$,Q+h/*28)QP(94 Y33wrBAHl
)K  [1280S$:w[23mGs6B023mGs6B028\tk mEJ07x(3e/y$,Q+h'/28)QP(94 Y33wrBAHl
)K  (xD\%# 9X=23mGs6B023mGs6B028\tk mEJ07x(39I*p!-i:0p*p7$k-/z
F>#SL:m4'$4\F:R.a.+zk:R.a.+zk:=MD/%toCix4Y=+i)9I*p!-i:=E**7$;-! 2\9QP:=GaW#QuY
3MZj=#[O-,2h#0wfm>g<9zwfm>g<9zw+o.ujm4up9C*7!vH:RA:zBvw+3AHp7$;-! 2\9QPY
3Mij=rw+*7;$4\# c-a[1$oQR-L///F:R.a.+G/'0E23mGs6k>;\)#TUm0'W)-4:DAHzB#=-/bJ)7$;-/xm/_jq
7O$'7I# 9xFE$dDf.9id[69/%54f$,T/q\>Agr4W2O.UJM4UP9c*s!;I:ra:ZbVWR%a:$rZ((6
eO6%3l:=2'g7c :=2';E#=0KDp[S[!79$Ow9sv7'V2,_;xm:Xlyx+U>94 yx#!<)10
'\*23'XzT%]p:=2'g7%v%C-A[1$O:r.A.+g/'0e26\TK Mej07X(mEuS$,q+H'/2\Yq+:00*P[
492x h$M$2:W[/$#<2#IXlwS/Y%K=M'7*90b7d'bRWi) -*E#=-/Bj)7\O-:XMV_.p:00*77\d%M[*5[
492x )$dDf.98zX7\) ( 23MgS6K>;\)#tuM0'w)-4:da)ZjVWF)1-5h#!o)12\9q+y
3Mij=vw+*7e07\) 5xLWs/y%k=m'7%V%c-a[1$o:]MD/%toCix4Y=+L#9I*p!-i:=E*)7$;-! 2\9QP:=GaW#QuY
3MZS7C [98Z$,t/Q\0u$,t/Q\0u$#KV<9C*7!5wf)1-pi# 7)U2\yQ+:00*p[
+!+]6dJ[
.ends iob_obc_lvlsh_n_d
