** End of subcircuit definition.
************************************
** Library name: rnr_iob
** Cell name: iob_lvds_ibuf
** View name: schematic
************************************
.subckt iob_lvds_ibuf enable in1 in2 out vccaux
.prot FREELIB
7WVh77< '-i($+g/'0e280sp3/XfH6s#+\X48_JxP/123#q+H'/:$#:#+n23/_3Q
$d$*P!R+(9iIyx+U>/XI 4\d9Y0*7[
492x1280sp>SX3Td3W+*7h7j#Y%K=M'7*90b7d'bRWi)%-7=#=-/Bj97\O-SXMV_JWRbahL
)*43ix3tD3w9==/30#y%k=m'79/%54F$.KV<X.F5<#m-/b)*7%((e%s$Rd((94uYX8
oU]7H$03w;*_H$+G/'0E2<sG$r3xi>mz203%+$uQuh[ 23_jXCsxZ'_Ywr%A:$Rz(36
eO6%-W+*7h($##+'X(779/%54f$.kv<x.f5<#M-'Bh77%((E%Y$#4(e94 yx#!<) 0
'\*2>93h$8<[39-A[1$O:\>Agr4W2O.UJM4UP9c*5!3p:ra:Zb5W+3av$rD((94Uy=8
oU]7)$s3w!= 2t=#y%k=m'7*90B7D'BrwI)%-7=#=-/bJ97\o-sxmv_jwrBAHl
)KT ixD\%#59J 2x=#y%k=m'7*90B7D'BrwI)%-7=#=-/bJ97\o-sxmv_jwrBAHl
)KT(9[(j=33:y2\779/%54F$+G/'0E26\tk mEJ07x(Ce H$,Q+h'j28)QL:0p*p7$k-[z
F>.SJ:=2'7HYw+*7H7X#59J 2<sG$r3xi>mz203%+$uQuhi 23_jXC2xZ'_-wr%A:$Rz(36
ez0xJW+*7h)>#)+53lT7')T[Xp/9# uM0'w)-4:dajZ<3WF)1-5$# 7)%2\Yq+:00*7[
49+x%280sp3UX78b#;39-U/7\90b7d'bRWi) -P<#=-/Bj97\O-SXMV_JWRbahL
)K  [xZt%3iE96( =# 9X T979k<9[oW9SV7'v2,_3X(ixLYX+u)9[FY>#!O)12\9QPY
3MZjJ#F398Z77dP:\0u$#KV<X.F5<#m-[b:07%((e%y$#4(E94 YX#!<) 0
'\\2P9.MJ7')T[XA779K<9[Ow9sv7'V2,_3x(IXlyx+U)9[fy>#!o)12\9qpy
3MZj$#/396( =#y<BxP/9# Um0'W)-4:DAHzXrwf)1-5$# 7)h2\yQ+:00*7[
49+x/2V=#59j 2<9ZW6b028\TK Mej07X(3E1+$,q+H'H28)ql:0P*P7$K-[Z
F>#S+:=2'7i5w;*_H$+zk:\0u$#KV<X.F5<#m-[b:07%((e%y$#4(E94 YX#!<) 0
Zr\t;M70
.ends iob_lvds_ibuf
