** End of subcircuit definition.
************************************
** Library name: rnr_iob
** Cell name: iob_tlvsht2_33
** View name: schematic
************************************
.subckt iob_tlvsht2_33 A V Y1 Y1_vdd Y2 por_b
.prot FREELIB
7=X#769;o9=2<9ZW6b028\TK:da:ZbyWF)1-PI#!o)12\9q+y
3$2E=/yO%x;$+d;:\p $.KV<9C*p!rH:RA:zXUwr%A:$Rz((6
eIs7PU:].3.-#Y:\XI>MZ203u)$Uq+HI%23_JxcSXMV_JWRba:L
)*u:<%2E=#y:\xi>mz203U)$uQ+h2xLY=#!O)12\9Q+Y
3$H$23w8'xP$+#TUm0'W);3:DA:z$#=-[xmv_jwrBA:l
)\3:\0u$2-w8[xP/9# Um0'W);3:DAH$,Q+h:xmv_jwrBA:l
)\u:<%2E=/yO%xP/9#y<BxZ>mz203U)$uQ4h(h23_jX>9[FYB#!O)\H$Rz(36
ez77Pp:5Xp/9#Y<bXz>MZ203u)$Uq4H(H23_Jx>9[fyb#!o)\h$rZ(36
BM8.'v 6
.ends iob_tlvsht2_33
