** End of subcircuit definition.
************************************
** Library name: rnr_spice_sanjay
** Cell name: iob_obc_ctrl_nc_es
** View name: schematic
************************************
.subckt iob_obc_ctrl_nc_es cnnd ctsb ff_b loc_vss loc_vdd normal_n term
+term_b ts_b
.prot FREELIB
%/X\ 79K<9>*7!-[y
k 2 D/F29-u/7G(Meh\l
s-w%=>Zj8%P:\0u$sQP(e \l
)KTW9[D:\[=Q=x't8Kw%=>Zj8%P:\p $.KV<9C*7!-J:RA:zXUw+3Ay$Rd(*[xm/_3q
7O$Y$#<2e$XAJ90WFM>G<YDWFM>G<YDW2O.U$UqpH/ 23_Jx($XMV_JWRba:L
)KT39>Z[#S5f[x\ 60T:R.a.+d;:R.a.+d;:]MD/7x(3e%T$,Q+h/*28)QH:0p*==#!<) 0
'\*I:=2'7=3W+*7v(7%v%C- V7%v%C- V7*90bX4yb+p#9i*P!Jj:0P*P7$K-/Z
F>.;w+m6oG,/ :=2'7=3w+*7V)7%V%c- v7*90Bx4Y=+uW9I*p!jJ:=E*07$;-/xm/_jq
7O$+$#<2e$XzT%33P9id[69;o9id[69;o9$Ow9#M-[B:77%((E1t$rD((94Uyx8
oU]12[#G  yIH$#<23uf23mGs6%p23mGs6%p26\tk:DAHzBUwf)1-pi# 7)j2\yQ6394uY=8
o2[1280SL>97(:\/F:R.a.+d;:R.a.+d;:]MD/7x(3e%T$,Q+h/*28)Q4:0p*p7$k-/z
F>.-w%=>Zj8%P:X0gx7%V%c- v7%V%c- v7*90Bx4Y=+uW9I*p!jJ:=E*97$;-! 2\9QPY
3MZ57G %=733=#2<c3280SPCuxLWs/y<BxZ>mzwI) -7<#=-/b:(7\o-$xmv_jwrBA:l
)K p9[(j=jJ:=2'7Jrwfm>g<9zwfm>g<9zw+o.u$uQ+h2xLYX++W94 YX#!<)10
'\\I:=2'7=3W+*7v(7%v%C-U/7%v%C-U/7\90bX4y=#=-/B:(7$;-/XM/_JQ
7O[)$#<23[V2J0'9:r.A.+ZK:r.A.+ZK:=md/7X(3E1+$,q+H/*28)q3:0P*P7$K-/Z
F>#5w+*7V(7G2<-xZt%3+W9ID[69k<9[oW9#m-/by$,Q+h/*2\yQ+:00*p[
49+[XzT%3Um9_\.-*W+*7h5I#=0KDp/9# uM02,_3x3IXlyx++w9[fyI#!o)12\9q+y
3MZp7\) [%T$#<23uf23mGs6B023mGs6B028\tk:DAHz=rwf)1-pi# 7)*2\yQ+:00*p[
4 3/Xzw8k$FC[280sp3[XzT%3pP9id[69K<9[Ow9#M-[B:07%((E1t$#4(m94 yx#!<)10
'4-h>9>z8Y# 9x )074#qW[p$U\((E%jP7% -/B:(x# TW[!T8Z(39cIyx+Uc/Z
$3.Q+h/*:$.:#+N23/_3q
7W%Y*7:[:j_GX.#O!C8z<7X -[B:sx#=+)1-PIJW+j8za0'K-[X46_-xcI123.q+H/*:L
T*[!=G(:9QPY
38J(X#/+=p280SPM(xFh6C 69CZYX+uC/xL8_jX($128DC z*6uY=#m2)1-5Bjq
$r$*P!Jj(9$\H#2);bahL
)Cu)(x\ 60wtJxFh6C 69CZYX+33/xL8_jX($128DC z*6uY=#m2)1-9<jwf]A:zXU+Y
8$\h#2);BAHl
)K W9[D:\[=Q=x't8Ks[9>Z[#S5f[xP/9# Um0L<%#m-[bH07%((e1V$#4(E94 Y33wrBAHl
!$ 2y.'l
.ends iob_obc_ctrl_nc_es
