** End of subcircuit definition.
************************************
** Library name: rnr_iob
** Cell name: iob_obc_drv_b
** View name: schematic
************************************
.subckt iob_obc_drv_b opn opn_del opp opp_del io loc_vss loc_vcco
.prot FREELIB
7=12HM#v2=XlwS/Y<bXlwS/Y<bXz>MZ203u)$Uqp>EVS$,q+H:Xz'_VWR%a:$rZ(39e yx+3>IXf/_Jxw[XfaSD((EuS074d%ba:ZbV4:=gAw#qUy
3MZjX##09.i86d)f9ID[69k<9ID[69k<9[oW9SV7uU2,_3ihi/23_jX>9[FYH#!O)12\9QP:3p*p!;ip9EuYX+J39E![yQ+hu/+$)2/<)1-5Hrw+N>D8_-q
7]%2HM#v2]XlwS/Y%K.23MgS6K>d$.kv<x.fsj#M-[%-0h#=-/Bj*7\O-$XMV_3WRba:$)D((EuS074K-/BY0<#OZKP*P!;IP9e![9q+H'/+$#2/0=ajL
)KT /x7W7tT2cp(37%V%c-a[m#=0kdP[stw2o.ujm43M9C*7B+4>9I*p!-L:=E*(7$;-[xm/_jw7%A:zJv4:30*p!54p9E![yQ+hu/+$)2/<)1-5Hrw+N>D8_-q
H0[I:MsQ
.ends iob_obc_drv_b
