** End of subcircuit definition.
************************************
** Library name: rnr_spice_sanjay
** Cell name: iob_obc_pred_pf
** View name: schematic
************************************
.subckt iob_obc_pred_pf loc_vss loc_vcco opp oppi pslew_lowvcc
.prot FREELIB
7O['P7Tt29.I64#=0KDp/9#=0KDp/9# uM0'w);3:da)$,q+H:XMV_JWRba:L
)K  'xD6.#V2]8280S3M9ID[69k<9[oW9SV7uU2,_3Xp9I*p!vwr%A:$Rz((6
eO8%3W+*7)s7*KF*cG3MXY%KXlwS/Y<bXlwS/Y<bXz>MZ203u)$UqpHIXlyx+I:0P*P7$K-/Z
F>.S+:m$i$m*T!9ID[69/%mxLWs/y%k.26\tk mE)S7x(Mev23_jXCsxZ'_-wr%A577$k-[z
-\#*50Xz
.ends iob_obc_pred_pf
