** End of subcircuit definition.
************************************
** Library name: rnr_iob
** Cell name: iob_diff2cmos
** View name: schematic
************************************
.subckt iob_diff2cmos enable in in_b out out_b
.prot FREELIB
H]=3g\#M2[ahZ<#M2UahZIRWi]%*P!RWi]/*7!5WiCP7 dqUH[X4.9T!;K2*)!JQ
$d[jy=+pc9cz7_Jxe6
e75h# 9x )57\) 2F2'4/#+\X48_Jxe:123#q+H/*:$#:#+n23/_3Wi]ahZ$]+y
8IiYX++W/xi 4\D9y0*7[
4#cIXzT%uU:=2'(h#O!C8z<7X -/Bv)x#=+)1-PIJW+j8za0'K-[X46_3x)(10
o,*((E1tP7*[!=g(:9qpy
38H7<# 9X*s$m$2:38gh#9wI=AHz$]+:R[*p!jJ(9[\h#2);BAH$u*(MeUTp7%T-/b:(X8
_2J8ZA0'k-[z
Fh=Yw+*7y;7t! c32'4/#+\x48_3X)(123#Q+h/*:$#:#+N23/_3wI]A)zJU+Y
8IiYX++W/xi 4\D9y0*7[
4#3[X(810=99- V7\) $H2'4/2!=-2,#q+HI1:$,\((E%SP7\[!=g(:9qp:d$*7[
a=2)1-5hJW2j8za0'K-[Z
F>.S3:]xZ$+d;:\p $.KV<9C*,.3wf)1-pe#!O)12\9Q+Y
3Mij$# 9X )57\w6%p2<ydw2o.u$uQm2uxLYX++#94 YX#!<)10
'\*2(9[2879;o9- V7*90bX4yU*U:ra:Zx]WR%a:$rZ((6
eO6%-W+9$2<YDW6%P26\TK:da46=#=-/B:;7$;-/XM/_JQ
7O$j$#<23:12679;o9- V7*90bX4yU*I:ra:Zx]WR%a:$rZ((6
eO6=# 9x*j$.#Yo%XpVY#tuM02,_Xtm9i*P!J,:0P*P7$K-/Z
F>.SJ:=2'7HUw+9- v79;O9$oW9#m-D$s$,Q+h/f2\yQ+:00*p[
492/XI$.#Yo%XpVY#tuM02,_Xtc9i*P!J,:0P*P7$K-/Z
F>#SJ:\0u$+zk:=2'7Brw6B028\tk mEJ07x(3e1+$,Q+h'j2\yQ+:00*p[
49+xH2<9ZW6b0280spcIXp/9# uM0'w)-4:dahZxRWF)1-5$#!o)12\9q+y
3MZje# :w[gx7\) [%+$+zk:=MD/%toCix4Yu/;!J_23_jXC2xmv_jwrBA:l
)K  'xi$4\w+*7H5<#y<BxZ>mz203%+$uQmQ%8\ 7%((e%y$Rd((94uYX8
oU=%280SPCixZt%3H(9-u/79k<9[oW9#m-DduWR'/99I*p!3J:0p*p7$k-/z
F>#vw+*7HSB# 9X sp79k<9-u/7\90Bx4Yu\u:RA:zX]wr%A:$Rz((6
eO8$# 9x S(7\) [/t$+ZK:\0U$#kv<9c*,#3WF)1-PE#!o)12\9q+y
3MZS7\) [/:$#<23:12<9zw6B028\tk:DA48=#=-/b:;7$;-/xm/_jq
7O[+$#<2w'XzT%3Iw9-U/79K<9[Ow9#M-d[j$,q+H/F2\Yq+:00*P[
4 m9[(J=5+:=2'(>#Y<bXp/9# uM02,_Jxm:Xlyx++#94 yx#!<)10
'\\+:=2'7j-W+*7t*79K<9-U/7\90bX4yx+pw9i*P!Jj:0P*P7$K-/Z
F>#3w+*7T57\) $h2<9zw6B028\tk:DA:z=Uwf)1-pi#!O)12\9Q+Y
3[V$#<2321280SJE9- v79;O9$oW9#m-[by*7%((e1e$Rd((94uYX8
Xr=$3W%8
.ends iob_diff2cmos
