** End of subcircuit definition.
************************************
** Library name: rnr_spice_sanjay
** Cell name: iob_obc_pred_p_b
** View name: schematic
************************************
.subckt iob_obc_pred_p_b loc_vss loc_vccaux loc_vcco opp opp_del oppi
+oppi_del pslew0 pslew1 pslew2 pslew3 pslew4 pslew5 pslew_lowvcc
.prot FREELIB
7O['7$# 9x ))7%v%C-U/7%v%C-U/7%v%C-U/7\90b7d'bRWi) -9h#=-/B+$rD((94Uyx8
oU=7H(7\) [U:$,t/Q\0u$,t/Q\0u$,t/Q\0u$#KV<X.F5<#m-[by)7%((ev2\yQ+:00*p[
49+xH280spmSXI/,<M(9id[69K<9id[69K<9[Ow9sv7'V2,_3x(9i*P!RWR%a:$rZ((6
eO8%34:=2'7h-W2bi(,=#=0KDp/9#=0KDp/9# uM0'w)-4:dahZI5WF)1-07$;-/XM/_JQ
7=*280sUc2XI/,<Mm9id[69K<9id[69K<9[Ow9sv7'V2,_3x)SXlyx+U>94 yx#!<)10
'#5W+*7h*b#t<r24s7%v%C-U/7%v%C-U/7\90b7d'bRWi) -0>#=-/Bj)7$;-/XM/_JQ
7=u280spe'XlwS/Y%K=M'7%v%C-U/7%v%C-U/7\90b7d'bRWi) -(7%((E/v$rD((94Uyx8
o+[hs$#<2C'j269%)I/xZt%-3>9ID[69k<9[oW9SV7'v2,_3wf)1-0i#!O)12\9Q+Y
3[J$#<2C'j23mGs6k>;\)#=0kdP/9#=0kdP/9# Um0'W)-4:DAHzi#=-/bs*7$;-/xm/_jq
7O['s7Tt29.I64# 9x v57%v%C-U/7\90b7d'j;Wi)u-s7%((E/28)q3:0P*P7$K-/Z
F>#S+:=2'7>-w2BI(,H#=0kdP/9#=0kdP/9# Um0'W)-4:DAHz<Ywf)1-5H# 7)%2\yQ6394uY=8
oU=7Hp7tT29.i64# 9X e)7%V%c-u/7\90B7D'J;wI)%-07%((e/28)Qu:0p*==#!<) 0
'#3l)9[(Jb-h:]0lTU-WFM>G<9ZWFM>G<9ZW+O.UJM4UP9c*7!5l:ra:ZhyWR%a:$rZ((6
eO8%5W+*7h*b#=0KDp/9# 9x ))7%v%C-U/7\90b7d'bRWi) -9h#=-/B+$rD((94Uyx8
oU=7H$#<23s%269%)IixLWs/y<BxLWs/y<BxZ>mz203%+$uQPh(h23_jXC:xZ'_-wr%A577$k-[z
F>#Si:m$i.y<=:m$ih6d)f9[(jB-H:R.a.+zk:=MD/%toMux4YJ+4:RA:zH# 7)U2\yQ+:00*p[
49+x h$#<23(/269%)iCid,+g/:r.A.+ZK:r.A.+ZK:=md/%TOcIX4yb+4:ra:ZbVW+3aj$rD(*[XM/_3Q
7= t57\) [Hj$.Z=9d1280spmSXlwS/Y<bXz>MZ203%+$UqpH/Xlyx+4:0P*P7$K-/Z
F8=Y4:=2'5B5w2BI(,=# 9X s57%V%c-u/7\90B7D'BrwI) -($#=-/b+$Rd((94uYX8
oU=7H57\) '1y$.z=9DdLWu9/%9ID[69k<9ID[69k<9[oW9SV7'v2,_-Xp9I*p!-i:=E*57$;-! 2\9QPY
3[H(H# 9X V57*kf*CJ$,t/Q\0u$,t/Q\0u$#KV<X.F5<#m-[b+*7%((e/V$Rd((94uYX8
oU=7HS7tT2cp(37tT2wd t,# 9X%:97%V%c-u/7\90B7D'J;wI)%-07%((e/28)Qu:0p*==#!<) 0
'\\2P9[(Jb-h:]0lTUVWFM>G<9ZWFM>G<9ZW+O.UJM4UP9c*7!5l:ra:ZbVW+3aj$rD(*[XM/_3Q
7O['57\) '%Y$.Z=9dV23MgS6b023MgS6b028\TK Mej07X(cE 23_Jxc:Xz'_-WR%a577$K-[Z
F>#SJ:=2'5B5wfm>g<9zw+*7HSX#=0kdP/9# Um0'W)-4:DAHz$vwf)1-07$;-/xm/_jq
7= ts7\) [Hj$.Z=9d 280sUmSXlwS/Y<bXz>MZ203%+$UqpH2/23_JxP94 yx#!<)10
'\\23:XzT%-3>9$U30X+:r.A.+ZK:r.A.+ZK:=md/%TOcIX4y=#=-/B+(7$;-/XM/_JQ
7O[';7\) 'uv$.Z=9d 23MgS6b023MgS6b028\TK Mej07X(3EJS$,q+HIXMV_JWRba:L
)KT /xD6./;9RxD6.Cwfm>g<sGV:R.a.+G/09$oW9SV7uU2,_;X)ixLYX+uE9[FY$#!O)\H$Rz(36
eI7x3W0]$2w.*#:r.A.+g/09id[69/%MXI>MZ203u)$Uq3H2V23_JxcSXz'_5WR%a577$K-[Z
-\#*50Xz
.ends iob_obc_pred_p_b
