** End of subcircuit definition.
************************************
** Library name: rnr_spice_sanjay
** Cell name: iob_obc_ctrl_nc_c
** View name: schematic
************************************
.subckt iob_obc_ctrl_nc_c cnnd ctsb ff_b loc_vss loc_vdd mcnd normal_n term
+ts_b
.prot FREELIB
%/X\ 79K<9>*7!-[y
k 2 D/F29-u/7G(Me*\l
s-w%=>Zj8%P:\0u$sQ,h[_0
'\*j:=.3>1%S+92 :+/f:K[A8%'=39- V7*90bX4y=+Uw9i*P!Jj:=e*07$;-/XM/_JQ
7O$S$#<23'/280s,c9id[69;o9id[69;o9$Ow9#M-'Bh;7%((E1t$rD((94Uyx8
oU]%2[#G  yIH$%zs[9ID[69;O9ID[69;O9$oW9#m-[bJ(7%((e1T$#4(p94 YX#!<)10
'.3+:=2'*<#)oY-23MgS6%P23MgS6%P26\TK:dahZbuWF)1-PI# 7)V2\Yq+:00*P[
492UXzw8k$FC[280spc:XzT%y4:r.A.+D;:]md/7X(3E%t$,q+H/*28)q4:0P*P7$K-/Z
F>.5w+*7e57G2<-xLWs/yO%xLWs/yO%xi>mzwI) -p=#=-/b:(7$;-/xm/_jq
7O$+$#<2#'XzT%33e9id[69;o9id[69;o9$Ow9#M-[B:77%((E1t$rD((94Uyx8
oU] 2[#G  yIH$D:s[]xLWs/yO%xLWs/yO%xi>mzwI) -5i#=-/b:(7\o-ixmv_jwrBA:l
)KT(9>Z[#S5f[xZt%3iE9ID[69;O9ID[69;O9$oW9#m-[bJ(7%((e1T$#4(p94 YX#!<)10
'\\+:=2'7xVW+*7h)>#=0KDp/9#=0KDp/9# uM02,_3xm'Xlyx++w9[fyI#!o)12\9q+y
3MZ07\) [1V$#<23uh23mGs6B023mGs6B028\tk:DA:ziYwf)1-pi#!O)12\9Q+Y
3MZ77\) [ J$D:s[]xZt%3+>9ID[69k<9[oW9#m-[b)57%((e1T$#4(W94 YX#!<)10
'\\U:K[A8%'=397U.-# 9x h57%v%C-U/7\90bX4y=+3c9i*P!Jj:=e*(7$;-/XM/_JQ
7O[)$#<23'12TY'Yq-XlwS/Y<bXlwS/Y<bXz>MZWi) -P<#=-/B:(7\O-UXMV_JWRba:L
)K >9[(j=-i:=2';B#=0kdP/9#=0kdP/9# Um02,_jXWsxLYX++W94 YX#!<)10
'\\h:=2';b#/ b3280sp(SXlwS/Y<bXz>MZWi)1-(>#=-/B:(7$;-/XM/_JQ
7= :$#T5u5iG87\) [%S$#<23'123MgS6b028\TK:dahZxRWF)1-PI# 7)u2\Yq+:00*P[
4#c2H2 d#[TC3I$)cS!=-2,#qpH/u:$,\((E1tP7\[!=g(:9qp:d$*5!-4(9iIyx++w/Z
$6DC z*6uY=8
o!'js$s\ O9[(j=;L:38gh#9wI=A:zB-+:R[*p!jJ(9[\h#2);BAH$u*((e%Jp[
a=2)1-PIJW2j8za0'K-[Z
FhB5,:J_gx7:[:38gh#9wI=A:zJ3+:R[*p!jJ(9[\h#2);BAH$u*((ej+p7%T-/b:(X8
_2J8ZA0'k-[z
FhBvL:*p3<7<;;\d/$)Cs!=-2,#Q+h'%:$,\((e1Tp7\[!=G(:9QP:D$*p!-u(6
:l6_Jx($126dc Z*6Uy=8
o!'vs$%<5U9Ma8y#)Oy-2'4/ '=pJ$u\((e%Jp7% -/b:(X# tw[!t8z(39CiYX+uC/z
$3.Q+h/*:$.:#+N23/_3q
7W%+;7g +%XO[#DW+*7h)>#O!C[;8Y-Wi=a:Zb-+:r[*P!Jj(9[\H#2);bah$U*((E%jP[
a=2)1-PIJW2j8za0'K-[Z
F>#Uw+m6oG,/ :*p3<7G %=733=#y<BxZ>mz=6Xx4Y=+3C9I*p!jL:=E**7$;-! 2\9QPY
e4Z68t2Y
.ends iob_obc_ctrl_nc_c
