** End of subcircuit definition.
************************************
** Library name: rnr_iob
** Cell name: iob_obc_drv_s
** View name: schematic
************************************
.subckt iob_obc_drv_s io loc_vss loc_vcco opn opn_del opp opp_del
.prot FREELIB
7=12HM#v2=XlwS/Y<bXlwS/Y<bXz>MZ203u)$UqjH'*23_Jx>94 y=#!<)12'Yq+HU/+$)Z((E*h$)2/o)1-shRW7n>Uyx+U>IXzaST -'Z
F>#S+:w.2W.\sO*I23mGs6B023mGs6B028\tk mE)S7x(We%T$,Q+h:xmv_3wrBA:$)d((eUs074k-/bT774D%%A:zJv4:3Ga/_jXC:v28oGV+)%0
'\*2(98d$M*tq%2l$,T/q\>Aw7%v%C-A[M#tuM0'w);3:dah5!RI:ra:ZbyW+3aY$rD(394Uyx#Oo)1-shRW7ba:Z$R4:3gAV_Jxm:V2'OgK-/Bj)<# ZK.zyb8
o2'x7W7tT29ID[69/%mxLWs/y%k.26\tk mE)S7x(3'b+)7%((e%V$#4()94 Y=#!<)12'yQ+hu/+$)z((ej+074D%%A:zJv4:3Ga/_jXC:v28oGV+)%0
Zr\t;M70
.ends iob_obc_drv_s
