** End of subcircuit definition.
************************************
** Library name: rnr_spice_sanjay
** Cell name: iob_obc_ctrl_nc_e
** View name: schematic
************************************
.subckt iob_obc_ctrl_nc_e ff_b loc_vss loc_vdd mcnd normal_n ts_b
.prot FREELIB
%/X\ 79K<9>*7!-[y
k 2 D/F29-u/7G(Mej\l
)Cu>sxo[#dw+*7J974#Qw[P$u\((e%Jp7% -/b:(X# tw[!t8z(39CiYX+uC/z
$3.Q+h/*:$.:#+N23/_3q
7W%Y*7:[:j_GX.#O!C8z<7X -[B:sx#=+)1-PIJW+j8za0'K-[X46_-xcI123.q+H/*:L
T*[!=G(:9QPY
38J9e#[tc32 D#o!c8Z<7x -/b)7X#=+)1-pijw+J8ZA0'k-[x46_jX)i123.Q+h/*:l
T*[!=G(:9QPY
3Mi77\V;o=L.##[tc3i$,t/Q\p $,t/Q\p $.KV<9C*7!-J:RA:zXUw+3A+$Rd((94uYX8
oU]%28m'9'RdZ$%zs[9ID[69;O9ID[69;O9$oW9#m-[bJ(7%((e1T$#4(p94 YX#!<)10
'\*+:=.3>1%S+9[(Jb5WFM>G<YDWFM>G<YDW2O.U$UqpH'*23_Jx($Xz'_RWR%a:$rZ((6
eO8b# 0Ym;36\W bD/$#<2>SXlwS/Y<bXz>MZWi) -s7%((E1t$#4(w94 yx#!<)10
'\\p:=2')>#[TC3I$#<2P'XlwS/Y<bXz>MZWi) -s7%((E1t$#4(w94 yx#!<)10
'\\+:=2'0b# 9x%Y$,T/q\0U$,T/q\0U$#kv<9c*7!;WF)1-PI# 7)*2\Yq+:00*P[
+!+]6dJ[
.ends iob_obc_ctrl_nc_e
