** End of subcircuit definition.
************************************
** Library name: rnr_spice_sanjay
** Cell name: iob_obc_ctrl_nc_x
** View name: schematic
************************************
.subckt iob_obc_ctrl_nc_x ff_b loc_vss loc_vdd op_out term term_b ts_b
.prot FREELIB
%/XzT%R4:\0U$SqUHS_0
[=#v2C.MJ79K<9>*7<+jT6
eO8=#v2C.MJ7\) IF280s3P9id[69K<9[Ow9#M-[BY$,q+H/*28)qU:0P*==#!<) 0
'\\+:=2's<# 9xV+$,T/q\0U$,T/q\0U$#kv<9c*7!5WF)1-PI# 7)%2\Yq6394Uy=8
oU] 2W./VrXxZt%r,:R.a.+d;:R.a.+d;:]MD/7x(3e*+$,Q+h/*28)Qu:0p*==#!<) 0
'.3I:=2'0E#29YmGX7%v%C- V7%v%C- V7*90bX4yx+Uc9i*P!Jj:0P*P7$K-/Z
F>.jw0]dD\%# 9Xv+$,t/Q\p $,t/Q\p $.KV<9C*7!U4:RA:zXUw+3AJ$Rd(*[xm/_3q
7] )$#<2PIX'T8kS[9id[69;o9id[69;o9$Ow9#M-/Bj57%((E1t$rD((94Uyx8
o!'vs$D:s[97(:\/F:X23>7\) iv2'4/2z57($u\(3ev:p7% -/b:(X# tw[!t8z(36
:46_3xP/123.q+H/*:$.:#+n23/_3Q
7W%+07sKq-X'T8kS[97(:\# 9xVE$)cS n='T7X -[B+Px#=+)1-PIJW+j8za0'K-[Z
$,.QPhi1:$,*((e1Tp7*[!=G(:9QPY
e4Z68t2Y
.ends iob_obc_ctrl_nc_x
