** End of subcircuit definition.
************************************
** Library name: rnr_spice_sanjay
** Cell name: iob_trimux
** View name: schematic
************************************
.subckt iob_trimux cbnet<1> cbnet<0> cfg_ts eoc_user_en gts_cfg_b gts_usr_b
+inextest rcfg_ctl tsdi tsjtag tsp tstateb
.prot FREELIB
7Wuj$+ZK:b2l.+ZK:b2l.+ZKq-X'/%[29-XfH6sd'x22,#qp:r[*P!Jj(9[\H#2);bahL
TxT-[xL6_jX($126DC z*6uY=8
o!u*V$#<23i/2/0%s B#2/0%s B#gx7Sk 57(x74#QXG;j0#m+) -5<jwf=A:zXU+Y
8[\h#2);BAJ$u*(3e%+p7%T-/b:(X#Ttw[!t8z(C6
eI57\) [1)$9<=qx0I.-#Yo%XpVY#tuM02,_-WF)1-PI# 7)%v$rD(*[XM/_3Q
7] 2J9s$ *32J9*W+*7hPj#Yo%XI>MZWi)%23_Jx($Xz'_3I:0P*==#!<) 0
'.-+:=2'7xyW bP7$+D;:\P $.kv<9c*7!VWF)1-PI# 7)/2\Yq6394Uy=8
o2'%2j9S$ *32/0%s Bp7.-# 9X :*79;O9$oW9#m-[bs$,Q+h/*28)Qu:0p*==#!<) 0
'#-W+*7hs=#K9rD'/.#Y<bXp/9# uM02,_-x>9i*P!Jj:=e**7$;-! 2\9qpy
3[H$%z2'X2/$%zT:=2'7J3w6B028\tk:DAJzH#=-/b:(7\o-:xmv_.P:00*7[
4 3$XzT%3U(97UV4#Y<bXp/9# uM02,_Jx#2Xlyx++w9[fyb#!o)\h$rZ(36
ez7>#2<x='T-#K9rD'/YcW+*7h5x#Y<bXz>MZWi)1-;$#=-/B:(7$;-/XM/_JQ
7WV+$#<23IJ2[d2S bX3[d2S%xi280sp>'XfH6\v;UX48_Jxc/123#q+H/*:L
T\[!=G(:9QP:D$*p!-+(9IiYX++W/xi 4\D9y0*7[
4#)(XUT,/2<.XzT%3Ic9g'/6$K;90(36sKoWXfH6\v;UX48_Jxc/123#q+H/*:L
T\[!=G(:9QP:D$*p!-+(9IiYX++W/xi 4\D9y0*7[
4#eSXzT%3lc9[(J=u3:b2l.%Zt:38G8M'U:d[*P!-+(9izyx++w/Xz 4\d9Y0*7[
aM2)1-5xJWF]a:Zxu+:]_78O<5<) 0
'4RI:x0I$OsKqK_!.-#)0KDM/0'S9=XfH6\v;'X48_Jxc/123#q+H/*:$#:#+n23/_3Q
$d$*P!-+(9iIyx++w/XI 4\d9Y0*7[
4#wIXAX#<2_[)2[-\) h1Q$#<232V2'4/ 0Y%2,#q+H'1:$,\((E1tP7\[!=g(:9qpy
8CiYX+u(/xL6_jX($126DC z*6uY=8
o!(*2/0%s Bp7$9<=QX0 h60w7wd78+#m+)1-5Xjwf=A:zXU+:=_78o<5<) 2,.Q+h'1:l
T%T-/b:(X#Ttw[!t8z(36
e7;x#K9rD'/*/f:b2l.%Z8:38GH#9Wi=a:ZbJ+:r[*P!Jj(9[\H#2);bah$U*((E%:P[
a=2)1-PIJW2j8za0'K-[Z
Fhe3w!=2Fj0z2:B2L.%z8Q-xFh6C 69CZYX+u(/xL8_jX($128DC z*6uY=#m2)1-5Xjq
$r$*P!Jj(9$\H#2);bahL
)CJE9[(j=54:X0D$)Cs!=-2,#Q+h'1:$,\((e1Tp7\[!=G(:9QP:D$*p!-+(9IiYX++W/z
$6DC z*6uY=8
o!(/2A%zsrB6280SP)'xFh6C 69CZYX+u(/xL8_jX($128DC z*6uY=#m2)1-5Xjq
$r$*P!Jj(9$\H#2);bahL
)C,)90(369k<90(369k<c32'4/#+\x48_jXC/123#Q+h/*:$#:#+N23/_3wI]A:zBj+Y
8IiYX++W/xi 4\D9y0*7[
4#3UXUT,/2<]XUT,/2<]D/$)cS!=-2,#q+H'1:$,\((E1tP7\[!=g(:9qp:d$*P!-+(6
:l6_Jx($126dc Z*6Uy=8
o!(%2A%zs%JGgx7\) [vy$)Cs!=-2,#Q+h'1:$,\((e1Tp7\[!=G(:9QP:D$*p!-+(6
:l6_Jx($126dc Z*6Uy=8
o!:h2j9l2'NxZt%34>9E7.4\y:D[*7!j4(9IZYX++W/xZ 4\D9y0*77xT-uxL6_jX($10
o.:#+n23/_3Q
7WF)$OsKq003.-#d bDM/8#O!C8z<7X -/BjPx#=+)1-PIJW+j8za0'K-[X46_Jxc/10
o,*((E1tP7*[!=g(:9qpy
38V;7\) [/J$9<=QX0<.-# 9X V574#Q==ZvB#m+)1-5Xjwf=A:zXU+:=_78o<5<) 0
oU*((E%:P7%t-/B:(x#tTW[!T8Z(36
e7;<# 9x t97\) [HS$9<=q\0U$)cS+5[ 57X -/BjPx#=+)1-PIJW+j8za0'K-[Z
$,.Q+h'1:$,*((e1Tp7*[!=G(:9QPY
38))7z)fc7uf60wzX0g\9'w+*7H($#o!c[;8y-wI=A:zBj+:R[*p!jJ(9[\h#2);BAHl
TxT-/bJpX#=2)1-pijw2J8ZA0'k-[z
Fh>Uw+*7H9B# 9X y07\) [*)$)Cs+5[ 57x -/bJpX#=+)1-pijw+J8ZA0'k-[z
$,.Q+h'1:$,*((e1Tp7*[!=G(:9QPY
38T(7z)fc7uf60w+*7H)B#2<mxZt%3L>9E7.#[ Oux46_jXC/123.Q+h/*:l
T*[!=G(:9QP:D[*p!-+(9IZYX++W/xZ 4\D9y0*7[
+!+]6dJ[
.ends iob_trimux
