** End of subcircuit definition.
************************************
** Library name: rnr_spice_sanjay
** Cell name: iob_obc_ctrl_nc_d
** View name: schematic
************************************
.subckt iob_obc_ctrl_nc_d cnnd ctsb ff_b loc_vss loc_vdd mcnd normal_n term
+ts_b
.prot FREELIB
%/X\ 79K<9>*7!3[y
k 2 D/F29-u/7G(Me*\l
s-w%=>Zj8%P:\0u$sQLhs_0
'\*j:=.3>1%S+92 :+/f:K[A8%'=39- V7*90bX4y=+Uw9i*P!Jj:=e*07$;-/XM/_JQ
7O$S$#<23'1280s,)9id[69;o9id[69;o9$Ow9#M-'Bh;7%((E1t$rD((94Uyx8
oU]%2[#G  yIH$%zs[9ID[69;O9ID[69;O9$oW9#m-[bJ(7%((e1T$#4(p94 YX#!<)10
'\*+:K[A8%'=39[(J=Vl:r.A.+D;:r.A.+D;:]md/7X(3E%t$,q+H/*28)q4:0P*P7$K-/Z
F6=jw+*7V;7<;;\xLWs/yO%xLWs/yO%xi>mzwI) -5i#=-/b:(7\o-ixmv_jwrBA:l
)KTM9[D:\[=Q=xZt%3u(9[(j>]wfm>g<ydw2o.u$uQPh'*23_jX($xZ'_rwr%A:$Rz((6
eO6$# 9xFY$SsK[9id[69;o9id[69;o9$Ow9#M-[B:77%((E1t$rD((94Uyx8
oU]v280S,)9[(j=;H:R.a.+d;:R.a.+d;:]MD/7x(3e1H$,Q+h/*2\yQ+:00*p[
492[XA8S\2;r 2 d/f29id[69;o9id[69;o9$Ow9#M-[Bj(7%((E1t$#4(P94 yx#!<)10
'\\U:K[A8%'=397U.-# 9x :*7%v%C-U/7\90bX4y=+3c9i*P!Jj:=e*(7$;-/XM/_JQ
7O[h$#<23/H2 d/f29[(J=3h:r.A.+ZK:=md/7X(3Euj$,q+H/*28)qj:0P*P7$K-/Z
F>#rw+*7H7B# 9X )97%V%c-u/7%V%c-u/7\90Bx4YX+JE9I*p!jJ:0p*p7$k-/z
F>#jw+*7H7$# 9X s*7%V%c-u/7%V%c-u/7\90Bx4Y=+3C9I*p!jJ:=E*(7$;-/xm/_jq
7O[S$#<23'1280s,)9id[69K<9id[69K<9[Ow9#M-/Bt*7%((E1t$rD((94Uyx8
oU=U280SPC:x(v89s[9ID[69k<9ID[69k<9[oW9#m-[b:07%((e1T$#4(M94 YX#!<)10
'#3+:=.3>1%S+9[(J=-+:=2'7bVWFM>G<9ZW+O.U$UqpH/V23_Jx($Xz'_;WR%a:$rZ((6
eO8$# 9xFY$SsK[9[(J=3U:r.A.+ZK:=md/7X((E*v$,q+H/*2\Yq+:00*P[
4#c2/2[#\;:=2'7j5W7WD78+#M+)1-5bJWF=a:Zxu+:=_78O<5<) 2,.q+H'%:L
T%T-/b:(X#Ttw[!t8z(36
e75$]WTjD/$d:W7WD78+#M+)1-s=JWF=a:Zxu+:=_78O<5<) 2,.q+H2V:$,*((E1tP[
atTW[!T8Z(36
e75$yWTjX\ 60t:38GH#9Wi=ahZx;+:r[*P!Jj(9[\H#2);bah$U*(cE%+P7%t-/B:(x8
_2J8ZA0'k-[z
FhBvL:*p3<7<;;\d/$)Cs!=-2,#Q+h'%:$,\((e1Tp7\[!=G(:9QP:D$*p!-u(6
:l6_Jx($126dc Z*6Uy=8
o!'vs$%<5U9Ma8y#)Oy-2'4/ '=pJ$u\((e%Jp7% -/b:(X# tw[!t8z(39CiYX+uC/z
$3.Q+h/*:$.:#+N23/_3q
7W%+;7g +%XO[#DW+*7h)>#O!C[;8Y-Wi=a:Zb-+:r[*P!Jj(9[\H#2);bah$U*((E%jP[
a=2)1-PIJW2j8za0'K-[Z
F>#Uw+m6oG,/ :*p3<7G %=733=#y<BxZ>mz=6Xx4Y=+3C9I*p!jL:=E**7$;-! 2\9QPY
e4Z68t2Y
.ends iob_obc_ctrl_nc_d
