** End of subcircuit definition.
************************************
** Library name: rnr_spice_sanjay
** Cell name: iob_obc_lvlsh_p_x
** View name: schematic
************************************
.subckt iob_obc_lvlsh_p_x in loc_vss loc_vcco loc_vdd out plvlsel_vccaux
+plvlsel_vcco plvlselb_vcco por_b_vcco
.prot FREELIB
7O[)$4\f:W[23MgS6b023MgS6b028\TK:dahZ<#=-/B:(7\O-'XMV_.p:00*7[
492x :$M$2:=2'g6c  9id[69/%MXlwS/Y%K.26\TK Me)s7X(mEut07%((E%v$rD((94Uyx# ZK.zyb8
oU]7H)7\) [vV$#<2'9ID[69/%mxLWs/y%k.26\tk mE)S7x(Cev+$,Q+h'h28)Qu:0p*==#!<) 28oGV+)%0
'\*23UX\V-wW!=3280spm:XlwS/Y%K.26\TK Me)s7X(cEu23_JxcSXMV_JWRba:L
)KT [j280S$:Jp/M6C  9ID[69/%mxLWs/y%k.26\tk mE)S7x((e*+$,Q+h'h2\yQ+:00*p[
492x +$#<2'9$d:60S6K>d$,T/q\>Aw7%v%C-A[M#tuM0'w);3:da:ZIRWF)1-5>#!o)12\9q+y
3Mij=Yw+*7;$4\w+*7H)$#=0kdP[stw2o.ujm43M9C*5!;wf)1-5>#!O)12\9Q+Y
3Mij=]wt%3]$#<2'c8Zj7%V%c-a[m#=0kdP[stw2o.ujm43M9C*p!U4:RA:zBYwr%A:$Rz((6
eO6%3j:=2'7h5WT%3]$,T/q\>Aw7%v%C-A[M#tuM0'w);3:dajZj#=-/Bj*7$;-/XM/_JQ
7O$'7=#vRxX78-# 9x +*7%v%C-A[M#tuM0'w);3:dajZ<RWF)1-5># 7)%2\Yq6394Uy=# ZK.zyb8
oU]7+$DdF.c8Zj7*=6R0(3-/y%k.2 y0\:R.a.+G/09$oW9SV7uU2,_3wf)1-5>#!O)12\9Q+Y
3Mij>#[O-,gh#Sw2R-L/0%s6k>D$,t/Q\>aW7%V%c-a[m#TUm0'W);3:DA:zirwf)1-5>#!O)12\9Q+Y
3MijH# 9X=gh#Sw2R-L/0%FQ\>aW7\) 5xLWs/y%k.26\tk mE)S7x(3e +$,Q+h'h2\yQ+:00*p[
492xF280s$qW['$.%YFb2l.+g/09id[69/%MXlwS/Y%K.26\TK Me)s7X((E*+$,q+H'H2\Yq+:00*P[
492x j$#<23U/280s$:r.A.+g/09id[69/%MXI>MZ203u)$UqUHUXlyx+Ue94 yx#!<)10
'\\2#9.MJ7\) 5XlwS/Y<bXlwS/Y<bXz>MZ203u)$Uqp:ra:Zh#!o)12\9q+y
3MZj=#[O-,2h#0wfm>g<9zwfm>g<9zw+o.ujm43M9C*7!;J:RA:zH# 7) :$Rd(*[xm/_3q
7O['7x# 9x=2H##=0KDp/9#=0KDp/9# uM0'w);3:dahZjuWF)1-)7\O-[12\Yq6394Uy=8
oU=7V$m$2:w[/$,t/Q\0u$,t/Q\0u$#KV<X.FSJ#m-'bH07%((e/28)Q4:0p*p7$k-/xZAst -'z
F>#S3:Jp/M7*=6R0(369/%54F$DdF.c8Zj7%V%c-u/7\90B7D'J;wI) 23_jX>94 YX#!<)10
'\\2c9[(J1#tF\iUT,/Y%K=M'7\) 5D78%#=0KDp/9# uM0'w);3:dahZ=RWF)1-)7$;-/XM/_JQ
7O$)$4\f:W[23MgS6%P23MgS6%P26\TK:daj$,q+H/*28)q3:0P*P7$K-/Z
a77\) 5xLWs/y<BxaYi+,t6
>j$dDf.9id[69K<9>*9!R[y
kU2 y0\Qw['$,t/Q\0u$sQuhs_0
[h# 9x=GH#sWFM>G<9ZW%)%-;d8
/(98Zx7%V%c-u/7G(3'bJ [
+!+]6dJ[
.ends iob_obc_lvlsh_p_x
