** End of subcircuit definition.
************************************
** Library name: rnr_iob
** Cell name: iob_cfgmux
** View name: schematic
************************************
.subckt iob_cfgmux in0 in1 out sel sel_b
.prot FREELIB
7W t(7c 390(37Z)FC32wrsW7WD'a1s):d[*P!-+(9izyx++w/Xz 4\d9Y0*7[
aM2)1-5xJWF]a:Zxu+:]_78O<5<) 0
'43j)98zP7Z)FC32/0%W0072'4/2Z57($U\((E%:P7% -/B:(x# TW[!T8Z(36
:46_Jxc/123.q+H/*:$.:#+n23/_3Q
H0[I:MsQ
.ends iob_cfgmux
