** End of subcircuit definition.
************************************
** Library name: rnr_spice_sanjay
** Cell name: iob_obc_ctrl_pc_d
** View name: schematic
************************************
.subckt iob_obc_ctrl_pc_d cnpd ctsb ff_b loc_vss loc_vdd mcpd normal_p term
+ts_b
.prot FREELIB
%/Xd66T! 9-U/7g(>jZ
a77GT%=733=#y<BxaY$+ut6
e75I;W *6O$\gto92 :+#O!C[;8Y-Wi=a:Zb-+:r[*P!Jj(9[\H#2);bah$U*((E%jP[
a=2)1-PIJW2j8za0'K-[Z
FhBUP:k[iv7K/2%xo[.<w7wdZG#du:D[*p!-u(9IZYX++W/xZ 4\D9y0*77xT-/bJ5X8
_f]A:zXU+:]_78o<5<) 0
'4-h>9>z6Y# 9x*t$)cS!=-2,#q+H'%:$,\((E1tP7\[!=g(:9qp:d$*P!-U(6
:l6_Jx($126dc Z*6Uy=8
o!'/V$0d5692 :+/F:38gh#9wI=A:zB-+:R[*p!jJ(9[\h#2);BAH$u*((e%Jp[
a=2)1-PIJW2j8za0'K-[Z
F>.]w+*7V77\) $*23mGs6%p23mGs6%p26\tk:DAJzJ5wf)1-pi# 7)%2\yQ6394uY=8
oU]j280SP(2x(v89wfm>g<ydwfm>g<ydw2o.u$uQuhuj23_jX($xZ'_vwr%A577$k-[z
F>.-w%]>Zj8%P:X0gx7%V%c- v7%V%c- v7*90Bx4YB+3)9I*p!jJ:=E*57$;-! 2\9QPY
3Mi)7\V;o=L..#/2k[':,3w+*7H7J#=0kdPvy#TUm02,_-XM2xLYX++W9[FYH#!O)\H$Rz(36
eO6x#/2K[':,3WuK$($,T/q\P $,T/q\P $.kv<9c*5!;h:ra:ZxuW+3aj$rD(*[XM/_3Q
7O$h$S*/+x6l77TtqM4'$,T/q\P $,T/q\P $.kv<9c*5!;h:ra:ZxuW+3aj$rD(*[XM/_3Q
7O$t$#T5u5iG67\) S 280sp(2XlwS/Yo%XI>MZWi)%-s$#=-/B:(7\O-:XMV_.p:00*7[
492SXzT%yp:K7UX7%v%C- V7%v%C- V7*90bX4yb+3)9i*P!Jj:=e*57$;-! 2\9qpy
3MiS7\) [ )$0d56c323mGs6%p23mGs6%p26\tk:DAJzJ5wf)1-pi# 7)/2\yQ6394uY=8
oU=U28m'9'Rdi$s*/+X6L77\) [/e$,t/Q\0u$#KV<9C*5!;H:RA:zXUw+3AJ$Rd(*[xm/_3q
7O[Y$#T5u5iG67\) S 280spc(XlwS/Y<bXz>MZWi)%-s$#=-/B:(7\O-'XMV_.p:00*7[
49+'XA6S\2;r 2J9/f:=2'7juWFM>G<9ZW+O.U$UqUHUJ23_Jx($Xz'_-WR%a577$K-[Z
F>#Uw+*7H5e#)Oy-gx7%V%c-u/7%V%c-u/7\90Bx4YB+3)9I*p!jJ:=E*57$;-! 2\9QPY
3MZ;7\) s 2[%zF:=2'7H3wfm>g<9zw+o.u$uQ+hsj23_jX($xZ'_vwr%A577$k-[z
F>#3w+*7HSi#V2c.mj7\) [/+$,t/Q\0u$#KV<9C*5!;H:RA:zXUw+3AJ$Rd(*[xm/_3q
7O[v$#<23: 280sjw9id[69K<9id[69K<9[Ow9#M-/Bv97%((E1t$#4(>94 y33WRbahL
)K (9[(j=v4:o>it7%V%c-u/7%V%c-u/7\90Bx4YB+3)9I*p!jJ:=E*57$;-! 2\9QPY
3MZ)7\) [/e$0d569ID[69k<9ID[69k<9[oW9#m-'b)97%((e1T$#4(C94 Y33wrBAHl
)KTp9.i.m$2:J_gx7%V%c- v79;O9$oW9#m-'b)97%((e1T$#4(C94 Y33wrBAHl
)K p9.i.m$2:J_gx7%V%c-u/79k<9[oW9#m-'b)97%((e1T$Rd((94uYX8
Xr=$3W%8
.ends iob_obc_ctrl_pc_d
