** End of subcircuit definition.
************************************
** Library name: rnr_spice_sanjay
** Cell name: rcload_deloutn_c
** View name: schematic
************************************
.subckt rcload_deloutn_c in out
.prot FREELIB
%/X7879K<9>*s!R[y
k 2WRSw6B02[_;XpJz
3p7C :m4'$8QuW6
BM8.'v 6
.ends rcload_deloutn_c
