** End of subcircuit definition.
************************************
** Library name: rnr_spice_sanjay
** Cell name: rcload_loutp_bs
** View name: schematic
************************************
.subckt rcload_loutp_bs in out
.prot FREELIB
%/X7879K<9>*sd8
/39.mj79k<9>*SD8
5(98Z$m$2:yAT0[
+!+]6dJ[
.ends rcload_loutp_bs
