** End of subcircuit definition.
************************************
** Library name: rnr_spice_sanjay
** Cell name: rcload_loutp_c
** View name: schematic
************************************
.subckt rcload_loutp_c in out
.prot FREELIB
%/X7879K<9>*5!u[y
k 2WRSw6B02[_-XWJz
3p7C :m4'$8QHW6
BM8.'v 6
.ends rcload_loutp_c
