** End of subcircuit definition.
************************************
** Library name: rnr_spice_sanjay
** Cell name: rcload_deloutn_b
** View name: schematic
************************************
.subckt rcload_deloutn_b in out
.prot FREELIB
%/X7879K<9>*)!V[y
k 2WRSw6B02[_vX>Jz
3p7C :m4'$8Q3(6
BM8.'v 6
.ends rcload_deloutn_b
