** End of subcircuit definition.
************************************
** Library name: madan_work
** Cell name: sim_ddr_mux_model
** View name: schematic
************************************
.subckt sim_ddr_mux_model clk1_op clk1_op_b clk2_op clk2_op_b d1_b d2_b gsr
+latch_en_o latch_en_t o_out oclkm oclkp od_inv od_inv_b ot_inv
+ot_inv_b s1_o s1_t s2_o s2_t s3_o s3_t s4_o s4_t t1_b t2_b ts_out
.prot FREELIB
7W7G/YD5qj_h$+ZK:Ki]7-/2:xD 76:[:\0U$OZ5:xDn>=/f:=2'9j-W6b02<YDW+*7Ys>#Y<bXp/98
_+*7)S>#yO%xZt%rH(98Dh6z;Oyd\ =/ 9Dz
Fhm/kO%6g D3w6B02[,WP[c.2W6dPQJ_2<9zwzB62W6_93c3280SH(sxP/9#yO%xZt%5P>9-u/79k<6
:zT%;4m9- V7\) IVt$4T#qbP :6:[3C[(,[
4#!M8Gw.s#+\%G[,wtu9- V7T/F4m2[,wS0]778+/939>lm6Tt W[p.\-Q
$Ki].M*2!=-G6=#/F4Dd6%c 6C$j$Mg=.]XzT%u+(9PCPp#;_[)2V601(+X .-mpV6
:zT%u+39- V79;o9- V7D1m[)2VW;+V9PC5E1Woh%v%7D1c$)2VW-hV9PC5<1Q
$%Rj)p#;_'uQ$YmUc+X #b3E:%RjPp#;_[FQ$Ympe+X #=uE:%Rh9p#;_[VQ$Ymp>+Z
$vw33v9pc7B1wOH H%7d13/)2vw]e:%rV%7d1W+x #$1wOHvq$yMiv9pcSP#;_')0
oY/f_U Q$Y/f_U1Q$Y/f_'FQ$Y/f_'HQ$Y/f_'*Q$Y/f_'JQ$Y/f_'VQ$Y/f_'/QL
Tds[H%)%7ds[H%J%7ds[H%H%7ds[H%:%7ds[H e%7ds[H V%7ds[H T%7ds[H y%[
a;q-Rh0p#;q-Rh)p#;q-Rhsp#;q-Rh5p#;q-Rh7p#;q-RhPp#;q-RE%7DS[hHQL
Tds[H*q$y/F_2)2v601p+x .-Miv9pgxw;e:%d/#B1w!m8gW.S#+\%g[,WTU6
>S;7TSo[=2<9ZW%)H:P!J$y
k/y$s%\3-dD$+zk:kA)z<:q
%:12[,w3[C72<9ZW%)u-0d8
/Msxa3g;FQmxP/9#/-ub+ [
gI397U.S%\qO%G8M9W6b02[_;xPjZ
a)i#VQ% 2<9zw%)%-)D8
/p2x'.aKPQ-xP/9#/-2b:pD8
/M[xa3g/V2X8Z<6*uQRp2<9zw%)%-0D8
/p'xD.%3w6B02[_-X>Jz
a5J# 9XhJ579k<9>**>jX(/=0
[byW%r,Gw.s#+\DI579K<9>*5!R[y
kU)$s%\Qm$'h#9sU'dLv79k<9>*5!r[Y
k V$#<2E'12<9zw%)v:p!j+'6
>Ss7sKqKi]..3S+M-2<9ZW%)u-0d8
/>sxZt%5JC9-u/7G(Ce/\l
svu:X0g[,Ws2'dZW+#y<BxaYJ+4t6
>j07TSo[D\ 79K<9>*(!JhT6
>j;7g=.C.IJ4\YqO 2<9ZW%)%-0d8
/>:xa3g3FQXxP/9#/-ub+ [
gU)9[(JIVh:\0U$SqpH$%\L
sri:=2'9ijw6B02[_Y+(e1;l
s3,:=2'(ejw6B02[_r+(e1:G[
g3P9.A3G/9cC[d<79K<9>*s!R[y
k%T$s%\Qm$'h#9sU'xP/9#/-'b+ [
gU(9[(J>3l:\0U$SqpH[_0
[hRW0Ki]..3S+M-2<9ZW%)u-0d8
/3ixZt%Y+C9-u/7G(#/1-p18
/p9[(jH5H:\0u$sQPhi_0
[># 9x*v*79K<9>*0xJx(/=0
[=# 9x*h(79K<9>*7!R[y
k T$#<2W:/2<9zw%) -*=:q
%IV2w6_93C32<9ZW%)J-Px:Q
%$XzT%ulc9-U/7g(P/1-Px[Q
%(XzT%ul)9-U/7g(3E \L
s3i:=2'(B5w6B02[_3XpJz
aSH#/f4dD6%C 6cMH.,dw6B02[_-XpJz
a7X# 9Xv+p79k<9>**>jX(5z
a7J#VQX gxR:w6B02[_3X3Jz
aS7\) $1+$+zk:kAHz<:q
%[ 280sj)SXp/9#/-[Bh(d8
/M$xa3g-FQmxP/9#/-ub+ [
gU>9.GV=/fRjXp/9#/-[Bh [
gp)97GV=/[T9-U/7g()E t [
gU39[(J<VU:\0U$Sqlw/B:P18
/M'xa3g/V2X8Z<6*PQRp2<9zw%)%-0D8
/M2xD[,Ws2'dZW+#y<BxaYJ+4t6
>j$#<2>$%2<9ZW%) -0d8
/)9[(ji3i:\0u$sQPhi_0
[<3W+*7Y0h#Y<bXAyb+IT6
>+s7sKq% ;$+ZK:KavPx++'6
>S$#<2>2H2<9ZW%) -0d8
/C'xZt%UL(9-u/7G(3e y [
g+:=2')IyW6b02[_3xPjZ
aSX#/f4dD6%C 6c$H$+zk:kAJz<:q
%I1280sh#/Xp/9#/-S1:Zx[Q
%UF2[,wU[C72<9ZW%)u-0d8
o!X0gvy'9r3x'/6t! c8Zj7%$ k;gt#/2:kI]7-/2:kI]5-/2:\p $%/%U[d/$%/%U'd/l
TSs4oUgx79;O90H.%#kCc7280S3MsxZt%5J(9>LMJ0s 9[(j<jL:BUgj7ziQXz
$hmCsO%6o\)8
oO%6o\)#VQm4'.4\2:R='[//)+c.2[,WP[c.2[,Wu[c.2<ydw0cno760w0cno560q
$MDn>j/f:\P $93S090j.M# 9xu+s7\) 2F:$S%\m-Dd$#<2)(F2/j/v:b/Gw[
a#0WD V8k!76
e7JY'STjDO\)-W0C7j.-$[:\0U$+ZK:xD 56:[:\P $+ZK:\0U$+D;:\0U$+D;:\0U$+ZK:\P L
TCV!c.L.JSV3cMm'7x -[x46_3q
7W7 :6:[qO4f77TS [D/\d#Y<bXp/9#2q% G d#Yo%Xp/9#Y<bXpVY#Y<bXpVY#Y<bXp/9#Yo%Z
$hmCs0Rd)jm3sU0E2,#QP:D$*7[
4##UH280sl3SXdV6c 69. .4\Yq-XzT%RIc96( 6Tt W[p$U\3-/BY$U\U-/BYL
Tx 3)1-S7xTC) 2,.3((ev2,.;((ej0
'4V4c9[(JI5U:MPGH#9W0%D78+/f:=2'0h5W;*_Gw.s#+\X48jq+H2X48bq+H2Z
$,#3((eU2,.-(39Ci7_jXp9CiS_jX)6
e70x]W+*7t*$#v C8z<7T2qW[p.-# 9xV+P7')TC.IJ4\Y:d[)yx+h:d[jyx+hy
8CZ7_jXM9Ci5_3wI] *p!rwI]U*p!5q
7WV)P7\) S Y$MsS!=-2w%/#+\D/$#<2PI/2:0:S0]778+#M+Ua:Z$#M+'a:Z$8
_I= *p!;wI]%*77xT3)1-07xTM)1-9[
4##[J2a9'W6%P280s4P$XfH6\v;'X48_Jx>/123#q+H/*:$#:#+n23/_3Wi]a:ZhJ+y
8IiYX++W/xi 4\D9y0*7[
4#>IH2a9'W6%P280s4)/XfH6\v;'X48_Jx>/123#q+H/*:$#:#+n23/_3Wi]a:ZhJ+y
8IiYX++W/xi 4\D9y0*7[
4#>: 2w6DUq-4\$+ZK:\0U$+ZK:MD 56:[:\P $+ZK:\0U$+D;:\0U$+D;:\0U$+D;:\0U$+ZK:\P L
TCV!c.L.HSV3cMm'7x -[x46_3q
7W.\:6k!7[Xd.Y3S[0_2<9ZW6b02<9ZW0CPh.d:W6%P2<9ZW6b02<YDW6b02<YDW6b02<YDW6b02<9ZQ
$\P $4T#qMiG)%TpqO4f$U\(39cIy=8
o!Xduvy'stJ%2<9zw%R,Jx6Sw cpJ.D:wzB62j6_9Cc3280SHM'xZt%53E9-u/79k<9[(j$j3Y
8- v7\) ij:$4t#QBp :6:[C6
e7w6Z;oYD\ j#Y<bXA3G;fqMXzT%5+)9gU:7TS4OuGX7\) 21v$#<2)[/2<9ZW6b0280sh3IZ
$<ydw+*7+0i##0wduvy'stJ%0
'4TS<%P3.d:U:\0U$S%\c-Dd$M/;cC_\$OZ5:MDn>b/f:=2'9xyW+*7Y7h#Y<bXp/9# 9x*:5[
aYo%XzT%R4w98dH6Z;oYD\ b8
o!Xduvy'stJU2<9zw%R,)x6Sw+*7ySX#D<yx'.aK3Q-xZt%53C9[(j$;L:\0u$+zk:=2'9J]q
$\P $#<2P212HMcS<%P3.d:Uy
ydD6=/F:kI]76tTQ-x .-M33+x3Y=Wq
;C.I57g=.'Dd67D1m/)2:_3\y
ydD6B/F:kI]56tTQ-x .-M3(+x3Y=Wq
;IRj;p#Yo%X .-mU#+X3y=wQ
;IRj*p#Yo%X .-mUe+X3y=wQ
;IRj(p#Yo%X .-mUw+X3y=wQ
;IRj9p#Yo%X .-mU)+X3y=wQ
;IRj0p#Yo%X .-mUP+X3y=wQ
;IRj)p#Yo%X .-mU>+X3y=wQ
;IRjsp#Yo%X .-mUm+X3y=wQ
;IRj5p#Yo%X .-mUc+X3y=wQ
;IRj7p#Yo%X .-mU3+X3y=wQ
;IRjPp#Yo%X .-mU(+X3y=wQ
;IRh;p#Yo%X .-mp#+X3y=wQ
;IRh*p#Yo%X .-mpe+X3y=wQ
;IRh(p#Yo%X .-mpw+X3y=wQ
;IRh9p#Yo%X .-mp)+X3y=wQ
;IRh0p#Yo%X .-mpP+X3y=wQ
;IRh)p#Yo%X .-mp>+X3y=wQ
;IRhsp#Yo%X .-mpm+X3y=wQ
;IRh5p#Yo%X .-mpc+X3y=wQ
;IRh7p#Yo%X .-mp3+X3y=wQ
;IRhPp#Yo%X .-mp(+X3y=wQ
;IRE%79;o9PGXW]E:Yahm[
'4_S)2<YDWoC3C*p#5-[,0
:<mjV9- V7DS[h*Q$8qp.6
6+#$1W6%P2V601)+X3y=wQ
;IR+%79;o9PGXWRE:Yahm[
'4_:)2<YDWoC3C)p#5-[,0
:<m3V9- V7DS[huQ$8qp.6
6+#b1W6%P2V601c+X3y=wQ
;IRh%79;o9PGXW3E:Yahm[
'4_/)2<YDWoC3CPp#5-[,0
:ImU#+Xp/9#;_'FQ$8qp.6
6t#byE:\0U$YmUe+X3y=wQ
;$Rj(p#Y<bX #buE:Yahm[
'j_'JQ$+ZK:%Rj9p#5-[,0
:ImUP+Xp/9#;_'VQ$8qp.6
6t#bVE:\0U$YmU>+X3y=wQ
;$Rjsp#Y<bX #b;E:Yahm[
'j_'%Q$+ZK:%Rj5p#5-[,0
:ImU3+Xp/9#;_' Q$8qp.6
6t#bJE:\0U$YmU(+X3y=wQ
;$Rh;p#Y<bX #=]E:Yahm[
'j_[HQ$+ZK:%Rh*p#5-[,0
:Impw+Xp/9#;_[*Q$8qp.6
6t#=5E:\0U$Ymp)+X3y=wQ
;$Rh0p#Y<bX #=RE:Yahm[
'j_[/Q$+ZK:%Rh)p#5-[,0
:Impm+Xp/9#;_[uQ$8qp.6
6t#=-E:\0U$Ympc+X3y=wQ
;$Rh7p#Y<bX #=3E:Yahm[
'j_[1Q$+ZK:%RhPp#5-[,0
:Im,V9-U/7D1#+X3y=wQ
;$Rv%79K<9PC*p#5-[,0
:ImjV9-U/7D1w+X3y=wQ
;$RY%79K<9PC9p#5-[,0
:Im4V9-U/7D1P+X3y=wQ
;$RS%79K<9PC)p#5-[,0
:Im3V9-U/7D1m+X3y=wQ
;$Rj%79K<9PC5p#5-[,0
:ImpV9-U/7D13+X3y=wQ
;$R:%79K<9PCPp#5-[,0
:6Tt39>lm=/v29PCs=1W;) ]L
)xu#9.gWRSs!=7280SH):xo*uC599C*p!-wf)Us57z((e%2>s*(OJMa6\Yq
$Oc3yY:9iYmv$\'(39mAy=8
oI' 2j9//f4di56\V69>LMB0s 9M),4'):DA:z=-wf)Us$9Q+h[%2>s*(OJMa6\;q
$Oc3yY:9iYm)$\'(39mAy=8
oI'v2j9/;35xZt%5J(9M),4'):DA:z=-wf)%:$9Q+h[%2>s*(OJMa6\;wUD6*vDKm;oU0
o\'(39mAy=8
oI'j2W6dP:=2'9i-wUuC7:0#m-/bH57%(M:xuYX+PC9Ma6_d[Uk$oS7Km;)p\>u'9M6
:O:_3WuKahL
)x3(9[(j$5i:=2'9$-wU2C7:0#m-/bH$,QP(/xuYX+PM9Ma6_d[Uk$o97Km;)p\>u'9)6
:O:_3WuKahL
)xPE9>LM6tT w[P.\3w%R,gW.S#+\do76%;:o%4h8<wI)1-7$#=-212/_jXC6
:O[.q;TO>I>b#9iYa  \X5u'XO:_3WuKahL
)x+:=2'9$-w0c.mj7KLIw6($uQ+h'xLY=;+:BA:zB#9%]A  \GTUsxo,8Q;toC3>>8
_UyAH$\G(36
e4s7T/F4DI76\v69>lm=0S09m),4'):da:Z=-WF)uS$9q+H[%2>S*(ojmA6\;Q
$Oc3yY:9iYm)$\'(39mAy=8
oI:xD[,Ws2'dZW+#/f4%/.m#9MD83t7x((e J$,Q3>90*p!3u:o>iYy:9%]M)l
TKm;)p\>u'9M9M3Y=#9%) 0
'URW0Ki].\-S+M-2[,w3[C.2>jX#;*X4yx+pc9i*sh#K-/Bh57k/2)P\>S*9m6
:O,8q;TOc3>j#9;) 2>Sqpy
3CH;7G=.c.ij4\yQo%2[,Ws0]778+/9CcI $\-m!y22,_jX32xLY$jw<)1-5[
a9%]a  \gtu'XO,8q;TOc3>b#9;) 2>Sqpy
3CJp7G=.c.ij4\yQ]%2[,Ws0]778+/TCcI $\-m!y22,_jX32xLY$jw<)1-5[
a9%]a  \gtu'XO,8q;TOc3>b#9;) 2>Sqpy
3CH(7G=.c.ij4\yQ] 2[,Ws0]778+/T3cI $\-m!y22,_jX32xLY$jw<)1-5[
a9%]a  \gtu'XO,8q;TOc3>b#9;) 2>Sqpy
3CJ57SkQkI].\-s+m-2[,W3[c72>Jx#;*x4YX+PC9I*SH#k-/bH57K/2)p\>s*9M6
:O,8q;TOc3>j#9;) 2>Sqpy
3CJ)7ts [xZt%54>9M),4'):DA:z=-wf)Us$9Q+h[%2>s*(OJMa6\;wUD6*vDKm;oU0
o\'(39mAy=8
oIuU280SH)/x'/6t! 9MV,4'):DA:zB#=-[U:$9Q+h'xo[.Q;to>i>>#9IyA  \x5Usz
$>8QP:o>*7[
4Mc$Xd.Y3$:=2'9EJWuUc7:0#M-/Bh57%(c/XUyx+pc9mA6_D[uK$Os7kM;)P\>U'9m6
:O:_3WuKahL
)x339[(j$rL:=2'9$jwU2C7:0#m-/bH$,QP(/xuYX+PM9Ma6_d[Uk$o97Km;)p\>u'9)6
:O:_3WuKahL
)xuM97u.s%\Q] g8m9w%R,Hx6SwUuC7:0#m-/bH57%(M:xuYX+PC9Ma6_d[Uk$oS[
a9iYa  \X5uUXO:_3WuKahL
)x3C97u.m$2Qw['$#<2)ih2>>x#;*x4YX+u:RA))B#k-/bJ$\GT-%_o[.KLY
8M4:_d[UD6o*7K5-[xo[_3q
7WVj97\) $1+$S%\qM$'H#9S2'DlV7\) :Jv$)cS+5[ 57X -/BYPx#=+)1-PIJQ
$=_78O<5<) 2,.q+H21:$,*((E1tP7*[!=g(:9qpy
38+5i#/f4dD6%C 6cMJ.,dw+*7s9># 9X*:074#Q==ZvB#m+)1-9Xjwf=A:zXU+Y
8[\h#2);BAH$u*((ej:p7%T-/b:(X#Ttw[!t8z(36
e70hJW+*7tsI#Yo%XzT%5,w9e7.#[ o'X48_Jxw/123#q+H/*:$#:#+n23/_3Wi]ahL
T%T-/b:(X#Ttw[!t8z(36
e70b;W+*7t7h#/F4Dd6%c 6C$h.,DW+*7S9$#O!C[;8Y-Wi=a:Z$J+:r[*P!Jj(6
:z 4\d9Y0*77Xt-/BYPx#=2)1-PIJW2j8za0'K-[Z
FhBU4:=2'(=Uw%R,gW.S#+\di76%;:=2')i-w7wdZG#du:D[*p!5+(9IZYX++W/z
$8DC z*6uY=#m2)1-9Xjwf]A:zXU+:]_78o<5<) 0
'4-j)9>lm6Tt W[p.\3SF%XzT%Vjc9[(JI3j:38G81\;c9czyx+h(/Xl8_Jx($10
o#:#+n23/_3Wi]a:Z$J+:r$*P!Jj(9$\H#2);bahL
)C4C:xa3g/V2X8Z<6KPQRp280Si)2xZt%UP>9E7.#[ O'x48_jX)/123#Q+h/*:l
T\[!=G(:9QP:D$*p!5+(9IiYX++W/xi 4\D9y0*7[
4##[H280sjc2XA3G/v2x8z<6*UqrP280sIwSXfH6\$+%%2,#q+H21:$,\((E1tP[
a TW[!T8Z(39cIyx+h(/Xl6_Jx($126dc Z*6Uy=8
o!( e$s%\Qm$'h#9sU'dLv7\) :*V$#<2W'j2'4/ '=pJ$u\((ej:p7% -/b:(X8
_+J8ZA0'k-[x46_jX)/123.Q+h/*:$.:#+N23/_3q
7W/t77\) $uh$#<2)U12'4/#+\X48_JxmI123#q+H/*:$#:#+n23/_3Wi]a:Z$J+y
8IiYX++W/xi 4\D9y0*7[
4#>$/2J6_9cC3280sjm[XfH6c 69czyx+U(/Xl8_Jx($128dc Z*6Uy=#M2)1-)xJQ
$r$*P!Jj(9$\H#2);bahL
)C,M[xD.y-w+*7TSH#o!c8Z<7x -/b)pX#=+)1-pijw+J8ZA0'k-[x46_jXE/10
o,*((E1tP7*[!=g(:9qpy
38+Se# 9X*)(7\) 2UJ$)Cs!=-2,#QPh'1:$,\((e1Tp7\[!=G(:9QP:D$*5!v+(6
:l6_Jx($126dc Z*6Uy=8
o!:je$#<2W:/2j9/;35xFh6C 69CZY=+L(/xL8_jX($128DC z*6uY=#m2) -)Xjq
$r$*P!Jj(9$\H#2);bajL
)C4CsxZt%vHE97u.s%\Q]%g8m9w7wd78+#m+)1-(Xjwf=A:zXU+:=_78o<5<) 0
oU*(3Eu:P7%t-/B:(x#tTW[!T8Z(36
e70b]W+*7tP<#2<C>lm6kUq=.p$)cS!=-2,#q+H$1:$,\((E1tP7\[!=g(:9qpy
8CiY=+3(/xL6_jX($126DC z*6uY=8
o!:*:$%/;3c_\$#<2W:/2'4/#+\x48_jXE/123#Q+h/*:$#:#+N23/_3wI]AJl
T%T-/b:(X#Ttw[!t8z(36
e7s>JW0CPh.d:W+*7t)$#O!C8z<7X -/BvPx#=+)1-PIJW+j8za0'K-[X46_-Q
$r$*P!Jj(9$\H#2);bahL
)C3E[xZt%Ui)9.gv=[w7wd78+#m+) -*Xjwf=A:zXU+:=_78o<5<) 2,.QPh:1:l
T%T-/b:(X#Ttw[!t8z(C6
e70jyW bDd\%/#+xXzT%u3w9e7.4\Y:d[*P!R+(9izyx++w/Xz 4\d9Y0*77Xt-[BhPx8
_f]A:zXU+:]_78o<5<) 0
'4]I(9[(JIR3:=2'9x5W7WD78+#M+)1-s<JWF=a:Zxu+:=_78O<5<) 2,.q+H21:L
T%T-/b:(X#Ttw[!t8z(36
e7;b]W+*7v5b#vq% GXr:W7WD78+#M+)1-*xJWF=a:Zxu+:=_78O<5<) 2,.qUy
8IiYX++W/xi 4\D9y0*7[
4#>[V2w6T! C8zJ7\) $J+$)cS!=-2,#q+HI1:$,\((E1tP7\[!=g(:9qp:d$*7!34(6
:l6_Jx($126dc Z*6Uy=8
o!:v+$#<2E[12W6du:38gh#9wI=AH$,\((e1Tp7\[!=G(:9QP:D$*5!v+(9IiYX++W/z
$6DC z*6uY=8
o!(U:$#<2Wu/2W6duQ-4\$)Cs!=-2,#Q+hs1:$,\((e1Tp7\[!=G(:9QP:D$*5[
a=2)1-PIJW2j8za0'K-[Z
FhHri:=2'(i5w+*7T9B#o!c8Z<7x -/bJpX#=+)1-pijw+J8ZA0'k-[x46_jX>/10
o,*((E1tP7*[!=g(:9qpy
38s7H# 9X*y07\) 21V$)Cs!=-2,#QPh'1:$,\((e1Tp7\[!=G(:9QP:D$*5!v+(6
:l6_Jx($126dc Z*6Uy=8
o!(/)$m/%U'd/$#<2WiU2'4/#+\x48_jXC/123#Q+h/*:$#:#+N23/_3wI]A:zHj+Y
8IiYX++W/xi 4\D9y0*7[
4#P[ 280s4P/XzT%uhe9e7.4\Y:d[*P!;+(9izyx++w/Xz 4\d9Y0*77Xt-/BYPx8
_f]A:zXU+:]_78o<5<) 0
'4-jw9[(JhuU:M>lm6*pq=.p$)cS!=-2,#q+H$1:$,\((E1tP7\[!=g(:9qp:d$*7!;+(6
:l6_Jx($126dc Z*6Uy=8
o!(%:$#<2>$h2Ws%\Q]%g8m9w7wd78+#m+)1-(Xjwf=A:zXU+:=_78o<5<) 2,.QPhu1:l
T%T-/b:(X#Ttw[!t8z(36
e7)<;Wo'D/$#<2w$/2'4/#+\X48_Jxc'123#q+H/*:$#:#+n23/_3Wi]a:Zb-+y
8IiYX++W/xi 4\D9y0*7[
4#>IJ280sjw:XzT%uj)9e7.4\Y:d[*P!-U(9izyx++w/Xz 4\d9Y0*77Xt-/Bj5x8
_f]A:zXU+:]_78o<5<) 0
'4R3P9[(J>3I:MD'574#qW[p$U\(39izyx++w/Xz 4\d9Y0*77Xt-'BSPx#=2)1-PIJQ
$]_78O<5<) 0
'4]h(9[(J<VU:=2'(>JW7WD78+#M+)1-sxJWF=a:Zxu+:=_78O<5<) 2,.q+H21:L
T%T-/b:(X#Ttw[!t8z(36
e70=RW [D/$#<2wS%2'4/#+\X48_Jxc'123#q+H/*:$#:#+n23/_3Wi]a:Zb-+y
8IiYX++W/xi 4\D9y0*7[
4#PUJ280sl(:Xd.%-S[0_2'4/#+\X48_Jxe/123#q+H/*:$#:#+n23/_3Wi]ajL
T%T-/b:(X#Ttw[!t8z(36
e70=VW+*7t*># 9x*v974#qW[p$U\((E%:P7% -/B:(x# TW[!T8Z(39cIyx+I(/Z
$3.Q+h/*:$.:#+N23/_3q
7WVh57\) $Hj$#<2wSH2'4/#+\X48_Jxc'123#q+H/*:$#:#+n23/_3Wi]a:Zb-+y
8IiYX++W/xi 4\D9y0*7[
4##IF280slc/XzT%u,(9e7.4\Y:d[*P!-U(9izyx++w/Xz 4\d9Y0*77Xt-/Bj5x8
_f]A:zXU+:]_78o<5<) 0
'4Rpm9[(JI5l:MD'774#qW[p$U\(39izyx++w/Xz 4\d9Y0*77Xt-'BSPx#=2)1-PIJQ
$]_78O<5<) 0
'4ul#9[(JIy+:MD 774#qW[p$U\(39izyx++w/Xz 4\d9Y0*77Xt-'BSPx#=2)1-PIJQ
$]_78O<5<) 0
'4R3c97j.-# 9x*E974#qW[p$U\((E%jP7% -/B:(x# TW[!T8Z(39cIyx+Uc/Z
$3.Q+h/*:$.:#+N23/_3q
7WH)57\) $J+$#<2)(H2'4/#+\X48_Jxc/123#q+H/*:$#:#+n23/_3Wi]a:ZhJ+y
8IiYX++W/xi 4\D9y0*7[
4#P[1280sl('Xd.%3S[0_2'4/#+\X48_Jxe/123#q+H/*:$#:#+n23/_3Wi]ajL
T%T-/b:(X#Ttw[!t8z(36
e70=5W+*7Y0h# 9xH:574#qW[p$U\((Eu:P7% -/B:(x# TW[!T8Z(39cIyx+l(/Z
$3.Q+h/*:$.:#+N23/_3q
7WV)(7TS 'XzT%y+>9e7.4\Y:d[*P!;+(9izyx++w/Xz 4\d9Y0*77Xt-/BvPx8
_f]A:zXU+:]_78o<5<) 0
'4]U39[(JI-h:M>lm6kUq=.p$)cS!=-2,#q+H$1:$,\((E1tP7\[!=g(:9qp:d$*7!;+(6
:l6_Jx($126dc Z*6Uy=8
o!i%+$#<2>2j2j9//f4di76\V69E7.4\y:D[*p!U+(9IZYX++W/xZ 4\D9y0*7[
aM2) -sxJWF]a:Zxu+:]_78O<5<) 0
'4V4w9[(J<Vh:=2'*=JW7WD78+#M+)1-sxJWF=a:Zxu+:=_78O<5<) 2,.q+H21:L
T%T-/b:(X#Ttw[!t8z(36
e70jVW+*7t;$# 9xHh574#qW[p$U\((E%jP7% -/B:(x# TW[!T8Z(39cIyx+Uc/Z
$3.Q+h/*:$.:#+N23/_3q
7WV)77\) IVS$#<2e[/2'4/#+\X48_Jxm/123#q+H/*:$#:#+n23/_3Wi]a:Z$J+y
8IiYX++W/xi 4\D9y0*7[
4#PUu280sl3'XzT%yp)9e7.4\Y:d[*P!-+(9izyx++w/Xz 4\d9Y0*77Xt-/BSPx8
_f]A:zXU+:]_78o<5<) 0
'4V439[(JI]+:=2'*=yW7WD78+#M+)1-5xJWF=a:Zxu+:=_78O<5<) 2,.q+H:1:L
T%T-/b:(X#Ttw[!t8z(36
e7;<yWo[D/$#<2e'12'4/#+\X48_Jxc'123#q+H/*:$#:#+n23/_3Wi]a:Zb-+y
8IiYX++W/xi 4\D9y0*7[
4##'H280shw'XzT%yUc9e7.4\Y:d[*P!;+(9izyx++w/Xz 4\d9Y0*77Xt-/BvPx8
_f]A:zXU+:]_78o<5<) 0
Zr\t;M70
.ends sim_ddr_mux_model
