** End of subcircuit definition.
************************************
** Library name: XI_MacrosLib
** Cell name: xi_aoi22
** View name: schematic
************************************
.subckt xi_aoi22 A1 A2 B1 B2 Y
.prot FREELIB
H]=3g\#M+-a:$,\((9czX6:#+n23/_3Wi==*P7X 'C_78O<5<) 2,.[((9iIyx8
_I]=g 4\D9y0*77xT[)12,.0stw[!t8z(36
ezXb# 9xu)$--W6b02<9ZW+O.U$UqM+-Xly,\W+3a48-/[!=g(:9#!o) 2\9qpy
3[/77pw[[xZt%;3:\0u$#KV<9C*,#0wf)IZ$#4(I=3g 4\D9y02\yQP:00*7[
4 ''XzT%Vp:5%2<9ZW6b028\TK:da481#=-r[28)qM+5D\H#2);bXMV_3WRbahL
)\$39O2G=# 9X/H$+zk:=MD/7x(I==23_% :=E*,#[stw[!t8zwr%AH$Rz(36
eIgb#::5%280s4(9- V7*90bX4yU*$:ral67\O-d$;.dc Z*6U$rD(394Uyx8
o25 2E7[P:=2'0X#yO%xi>mzwI)CiG7%(f]xZ'_xT'c_78o<5<94 Y=#!<)10
'.0U:=2'0x#fc9- V79;o9$Ow9#M-d$/$,q=29[fyU*fqj8za0'K:0P*77$K-/Z
F6-3w+*7+p70P:\p $+d;:]MD/7x(I]323_%T:=E*,.0stw[!t8zwr%AH$Rz((6
BM8.'v 6
.ends xi_aoi22
