** End of subcircuit definition.
************************************
** Library name: XI_MacrosLib
** Cell name: xi_nand2
** View name: schematic
************************************
.subckt xi_nand2 A B Y
.prot FREELIB
H]=3g\#M+)123#q+:=_78O<5<) 2,.q+:r$*P7*[!=g(:9qpy
3[J$#<2C/x/$+zk:\0u$#KV<9C*,##=-R[28)Q tw[!t8zwr%AH$Rz((6
ez77PW'9[(JbJW6b028\TK:da487%(F=Xz'_\[!=g(:9#!o)12\9qpy
3$H$2#$:\p $+d;:]MD/7x(I]xLY,*w+3Ai 4\D9y02\yQP:00*p[
4tc9o2X79;o9- V7*90bX4yU*WF)iI$#4(2j8za0'K:0P*77$K-/Z
-\#*50Xz
.ends xi_nand2
