** End of subcircuit definition.
************************************
** Library name: rnr_iob
** Cell name: iob_lvds_obuf
** View name: schematic
************************************
.subckt iob_lvds_obuf aout bout lvds_m<8> lvds_m<7> lvds_m<6> lvds_m<5>
+lvds_m<4> lvds_m<3> lvds_m<2> lvds_m<1> lvds_m<0> lvds_s<8>
+lvds_s<7> lvds_s<6> lvds_s<5> lvds_s<4> lvds_s<3> lvds_s<2>
+lvds_s<1> lvds_s<0> nbias o_b pbias por_b por_b_vccaux por_b_vcco
+term_aout term_bout tstateb vccaux vcco
.prot FREELIB
7x23>6< '-i(87%YFb;G3+DKqbRj%7%YFb;G3+DKqbR)%7%YFb;G3+DKqbRS%[
a=6%0G>WJE:r- /6Z1c+Xl<YZS<huQ$,9;<C0C)p#=6%0G/WJE:].3.-/Y%K=M'[
a2<x='T-#Y%K=M'7%YFb;G3+DKqbRh%7%YobDU#=1W!M3G3+DKqx23>6< '-i(.1$Oy
38L<yzs<Xpu.,9=<Fxax4SsOw_\7</y%k=m'7GF!Xd hD:Ppc-a[m8
_%-8'.yC[t[hg<sG$r3xax4SsOw_\7>/y%k.2[-C2Q*E'.+G/'0E2[-C2Q*E'.+G/06
:AX4sSF%7G<Sg$R3XAX4sSF%7G<Sgv:r- /6k1)+Xl<YZSuhVQ$,9;<CmC)p8
_f\pu.\M3v9IPv9/9_')23+dkQorH%7*V;c3g<sG$r3xiW8/FQ\>aW79/%54F$+G/06
:7w-/=6%0G/%DKqr-l//8
o!=-gj0'9Q]dJ$,9=<FdL<yzs<Hhq$%<5Uc2ZG-%)2c%2<sGV:\0u$)Cs w[P.J;o73z
$,#QP:R[*p!v+(9[\h#2);BAH$u*(3ev:p7%T-/bJ*X#Ttw[!t8z(36
e78+/29YmG663WF\iUD6%YobDU#I1W *6O.0\$[r2I.=#Y%K.2<9ZW7WD'H#9SmUef'[
aM+) 23#q+H:1:$#:#+n23/_3Wi]ahZ<J+:r$*P!-l(9$\H#2);bahL
)C 6c7(:\/TQ/xL<,z*QR- /6z1)+x't8Ks9==/30*s(9-a[m#y<BxFh6S#+\d)S)4oY
8CZY=#=+)1-)Xjw+J8ZA0'k-[x46_3Xp/123.Q+h'h:$.:#+N23/_3q
7W[p.0\S6K>d$0\$[r2G<Sgv:*[;X,<fq\>Aw79/%MXp/9#O!C778+/3m3ef$U\(mEu:P[
a=+)1-)xJW+j8za0'K-[X46_5x)I123.q+H'H:$.:#+n23/_3Q
7W[p.%<5uC$G x#=6r0>.,9;<C0C0p#29YmGT#[fF*$G x#Y%K.2<9ZW7WD'H#9SmUef'[
aM+) 23#q+H:1:$#:#+n23/_3Wi]ahZ<J+:r$*P!-l(9$\H#2);bahL
)C=6R0>.0\s6k>D$0\$[R2g3+%s!=xP[stw+*7H)<# 9X s97< '-I(.+G/06
:Iw8/fq\>Aw7cv[C7l<9H23Cu)L
)C=6R0> 6< Q54F$0\$[R2g3+%s!=xP/9#y%k=m'79;O92ZG-%)Q\>aGR4q
$].3.-/Y%K=M'7cv[CipV9/=6r0> [
4#F\iUDd/;'x=Ggr4WoC8z$+ZK:\>Agr4W6%P2V6T! 9$d:60S6K>;\)8
_!m3g3+dkQR-L//:sO57;l
)S);od(810=9]xL<,z*QR- /6z1)+xL<,z*QR- /6z1W+xL<,z*QR- /6z1E+z
$3+dkQor:%7%yOBdu#$1wf\pu.9MJv9IPv9/k_s)23+dkQBr:%7*V;c3g<sGVY
87uj1S)[9-a[m#=6R0>.,9;<c0c0P#=6%0g/wre:w./.,9;<c7(:\/)+53Lt[
4#F\PU.Y'#6*62J0'9q*[;X,< q/X'T8kS9==/30\S397(:\/)+53lT#/Uy
87(:\/)+53Lt#/[(97(:\/)+53Lt./+:X23>6< '-I(663w *6o.0\$[R2i.B8
_ *6o.0\$[R2i.Djw'm4'$-t! 9>/h%/;!J_H069/%54F$s0# cp7 D34Q\>aW[
a/[W7GV4:[3SDp[S[!79>/H%/;!j_h*69/%MXAX4sS937G<Sg$R3XAX4sS937G<Sgvy
8>/h%/=OXdP[s[!79>/h%/=OXdP[stw9==/30/y%k=m'7< '-I(.+G/06
:(810=9-Dp[S[!792zg-%)[C-A[M#;qM4'$#0#'bXIX4[K:].3$%<5uC=d\%8
_ *6o.-t! 9-a[1$o:\>aW7CV[cIPv9/;;w-(l
)C '=pgv1S$:md/$,9;<cMcpP#;Qw[2'4/ '=pJ$u\(Ce*:p7% -/b:(X# tw[!t8z(p6
:46_;WF]a:Zxu+:]_78O<5<)H0
'4\$+%D(810=997UJ1s)[9ipV9/9_/)280sU3SXfH6\$+%%2,#qpH2123#q+H/*0
o#:#+n23/_3Wi]ahZ$JWF]a:ZxuW2j8za0'K-[Z
Fh#9s2m626m's[9$D:74#Qw[P$u\((ev:p7% -/b:(X# tw[!t8z(39CiY=#=2)1-pijq
$]_78O<5<) 0
'4\Yq*[;X,<W+*7j7>#)+53lT6%YFC8z$)cS!=-2,#qpH2123#q+H/*28dc Z*6Uy=8
_I]A)zBjwf]A:zXUw2J8ZA0'k-[z
Fh#9+QX23>6\st/xL<,z*QR- /6z13+xP[s[!79[(jB;+:38gj4\y:D[*p!U4(6
:l8_Jxc:128dc Z*6Uy=#M2) -0xJWF]a:ZbV+:]_78O<5<) 0
'4\Yq*[Ggr4W9==/30/Y%K=M'79/%54f$0\$[r2/.+g/'0e2'4/2!=-2,#q3HU%:L
T% -/bJ)X# tw[!t8z(39CiY$+Hp/xL6_jXC:126DC z*6uY=8
o!=-:.%<5Uc[g57%yfB;g3+dkQBrs%79/%54F$#<2Cuj2'4/2!=-2,#Q+h$v:l
T% -/bJ)X# tw[!t8z(39CiY=+4(/xL6_jXC:126DC z*6uY=8
o!=-:.%<5Uc[g77%yfB;g3+dkQBr)%79/%54F$#<2Cuf2'4/2!=-2,#Q+h$v:l
T% -/bJ)X# tw[!t8z(39CiY=+4(/xL6_jXC:126DC z*6uY=8
o!=-H.%<5Uc[g57\) 'Uy$+G/'0E2j0'9Q*[;x,< Q'xFh6S#+\x48_jXWi123#Q+h'/:l
T\[!=G(:9QP:D$*7!r+(9IiYX+u>/xi 4\D9y0*7[
4#+\ GJ0'9q=D\P7\) 'u:$+g/'0e2J0'9q*[;X,< qj12'4/2!=-2,#q+H$V:L
T% -/bJ)X# tw[!t8z(39CiY=+4(/xL6_jXC:126DC z*6uY=8
o!=-H.%<5Uc[gp7\) 'vH$+G/'0E2j0'9Q*[;x,< Q/xFh6S#+\x48_jXWi123#Q+h'/:l
T\[!=G(:9QP:D$*7!r+(9IiYX+u>/xi 4\D9y0*7[
4#+\1GJ0'9q=D:$,9=<fDl<YZS<h%Q$+g/'0e280sUP[XfH6s#+\X48_JxwI10
o,\((E%SP7\[!=g(:9qp:d$*7!R+(9iIyx+U>/XI 4\d9Y0*7[
4#+\ GJ0'9q=Dh$#<2cUF2<Sg$R3X'T8kS9==/30\S39e7.%c 69czyx+jP/Xl8_Jxc:10
o#:#+n23/_3Wi]ahZ<J+:r$*P!-I(9$\H#2);bahL
!$ 2y.'l
.ends iob_lvds_obuf
