** End of subcircuit definition.
************************************
** Library name: rnr_iob
** Cell name: iob_lvds_term_plyr
** View name: schematic
************************************
.subckt iob_lvds_term_plyr Rout_pn1 Rout_pn2 Rvos_pn1 Rvos_pn2
.prot FREELIB
7Y12:+TKq][j$#<2wUXp/9#t8b33T9#M-$Xlyb+4>IXO/_3WuYah$\g(3907a8q+y
36:GX# 9X*)$#<2EixP/9#T8B33t9#m-[/23_-Xpi12>9QP:o6*77K/-[xuho'((6
e3P13W+*7ts7\) SV2<9ZW2<0/:0ZWi) S$,qUHIV:$\Z(39m3y=#9%) 2/425-/Z
F:X[u:=2'(J# 9Xh+$+zk:]Oux8<k:DAH)7%(Cev+p7Kk-[xo:_3wUkAH$9CD;)10
'8J$m9[(JI;W+*7v079K<9$#/-')<9c*7h#=-'B+0x#9<) 2>8qp:O>*77Z#ZYa:L
)'+[uxZt%Y4:y.mj6* 39-u/7*:<-6(/7x(3:xLYB+4p/xo/_3wUyAH$\G(3907A8Q+Y
36:xB# 9Xh+$8t! c$Z779k<9$#/-')<9C*7H#=-'b+0X#9<) 2>8QP:o>*77z#zyA:l
)'+[[xZt%Y4:y.mj6* 39-u/7*:<-6(/7x(3:xLYB+4p/xo/_3wUyAH$\G(3907A8Q+Y
36:xX# 9Xh+$8t! c$Z779k<9$#/-')<9C*7H#=-'b+0X#9<) 2>8QP:o>*77z#zyA:l
)'P[uxZt%3u>96D\%/T+'xP/9#T8B33t9#m-[/23_-Xpi12>9QP:o6*77K/-[xuho'((6
e37--W+*7h5h#5007G6#-W6b0262Zf;*02,_3I:rajZ<R+:O0*77k5-[XO[_3W<Wg3yx8
o;[3H$#<23'/2:m$2Q][J$+zk:]Oux8<k:DAH)7%(Cev+p7Kk-[xo:_3wUkAH$9CD;)10
'83f(9[(J=-I:Y.MJ6* c9-U/7*:<-6(/7X(3:Xlyb+4P/XO/_3WuYah$\g(3907a8q+y
36H$89V<c$Z77\) [ J$+zk:]Oux8<k:DAT$,Quhi/+$\z(39M3Y=#9%) 2/425-/z
F:=[+:=2'7=-w+*7H5H#y<BxiE9059Bx4Y=vwf)%-0<jwUBAH$\'(39MaY=#k!N6*p[
4535 280sp3'XzT%3U>9-U/7*:<-6(/7X(3:Xlyb+4P/XO/_3WuYah$\g(3907a8q+y
36HGB# 9X H57\) [%s$+zk:]Oux8<k:DAH)7%(Cev+p7Kk-[xo:_3wUkAH$9CD;)10
'83$m9[(J=3U:=2'7bVW6b0262Zf;*02,_3I:rajZ<R+:O0*77k5-[XO[_3W<Wg3yx8
Xr=$3W%8
.ends iob_lvds_term_plyr
