** End of subcircuit definition.
************************************
** Library name: rnr_spice_sanjay
** Cell name: iob_obc_ctrl_cz
** View name: schematic
************************************
.subckt iob_obc_ctrl_cz normal_n_a normal_n_b normal_n_c normal_n_d
+normal_n_e normal_p_a normal_p_b normal_p_c normal_p_d dis_n_a
+dis_n_b dis_n_c dis_n_d dis_n_e dis_p_a dis_p_b dis_p_c dis_p_d
+ff_b ts_b loc_gnd_ctrl loc_vdd_ctrl norm_n_x<8> norm_n_x<7>
+norm_n_x<6> norm_n_x<5> norm_n_x<4> norm_n_x<3> norm_n_x<2>
+norm_n_x<1> norm_n_x<0> norm_p_x<13> norm_p_x<12> norm_p_x<11>
+norm_p_x<10> norm_p_x<9> norm_p_x<8> norm_p_x<7> norm_p_x<6>
+norm_p_x<5> norm_p_x<4> norm_p_x<3> norm_p_x<2> norm_p_x<1>
+norm_p_x<0> cnnd<13> cnnd<12> cnnd<11> cnnd<10> cnnd<9> cnnd<8>
+cnnd<7> cnnd<6> cnnd<5> cnnd<4> cnnd<3> cnnd<2> cnnd<1> cnnd<0>
+cnpd<19> cnpd<18> cnpd<17> cnpd<16> cnpd<15> cnpd<14> cnpd<13>
+cnpd<12> cnpd<11> cnpd<10> cnpd<9> cnpd<8> cnpd<7> cnpd<6> cnpd<5>
+cnpd<4> cnpd<3> cnpd<2> cnpd<1> cnpd<0> normal_p_bs normal_n_es
+term term_b dis_p_e normal_p_e normal_p_es tsb_s<0> tsen_b
.prot FREELIB
7d12 d/f:=2'7>-WuIc7:0#M-/B)07%(c/XUyx+4:O>IyY:9%]m+$\X5-%_O,8k4:O6*7[
a9%) 0
'U-W+*7h(E# 9x vP7kUiW6($Uq+HUV23_Vl:ba:Z=5WuK$*Vdk/2O%2>U'(ojm4:\-Q
$O6*77k/-[Z
F,=# 9X V57:[Q-dZ$\-m!y22,_jX3[xLYJ5w<)1-7i#9%]A  \GTU'xo,8Q;toC3>B8
_UyAH$\G(36
e4)7:[q-XzT%3j#9mv,4'):da:Zb#=-2u2/_Jxc'XO[.q;TO>I>>#9iYa  \X5uSXO:_3Q
$O>*7[
4#c2V2J9< q-XzT%;3(97UX6Z1(+XzT%3le98dX6sK[CmM'b3/y
38aj8% Q*02[#\;_()280SPEsx\ 60s+9ID[62 Oc>':,#=0kdPvy// yI28m'9'RdZ.0zq
$x23>7s);OD/$%ZS[98dX6Tf%C>':,/ %C2UL
)C/ yIi.0zw%=$ #=ve:=2'7>Yw+*7H*X#=0kd!8y// yI23mGs6%pg[%'=Y
8[D:\[=Q]d(/7S);ox't8Ks[97u.-##0-dDxs// yIg6s/)<6
e7[%'=2C3U$S\toh t%7\) [Hv$#<23S123MgSZ=PG[%'=:r.A.+D;qK733[
a 0Ym;36*S[bX'T8kW *6O.-#2<C32HM0S0->G[%'=q]>GX98
o!k733#/):J_gx6\wfm>gA#ds%X6L$,t/Q\p .sS5f9p7/6\s99[D:\[=Q=d($%zs[6
:7w-/v[KDAJ8%S+KD(L
)C/ yIZ.-#/+=pc7B1w+*7H*>#[tc3g87%V%cGZv6G2;RxLWs/yO%daj8%wOw0g860q
$=.3>1%S+C32J0'9:x0GX7cv[C./[6g2;rDz[60Q
7W>':,*S99[(J=y+:r.A.O\;qK7337%v%C- V6g2;rX H9/tq*Xzw8k$FC$GT7sKq-Z
$hm0s0->g[%'=Q]>gt[
4#%x6l660W%=$ #=]E:=2'7>yW+*7h*x#=0KD!8Y// Yi23MgS6%PG[%'=:%8U../fy
8[D:\[=Q]d/$%<5U97u.-##0-dDxs// yIg6s/FY
38aj8% Q%xa8#d13/)280SPEsx\ 60s+9ID[62 Oc>':,#=0kdPvy// yI2v4zs+cp0
o#T5u5iG86DW *6O$%ZS[98dX6Tf%C>':,/ %CP0
'4g2;r[Gg7g +%Rhsp# 9x v*7:[q-Dz$,T/qn[ .Ss5F9id[69;oC>':,#;!bDz.18
_+m6oG,/ Q5x't8Kw Bd/$4tFQm3a.sS5fc[a.18
o!k733./;:k[ivw34v9[(j=YL:=2'7>jwfm>gA#ds%X6L$,t/Q\p .sS5f9p7/6*sO6
:zw8k$FC$GV7s);OX'/60W!M3Gw-gS%x6l..gSo6
e7[%'=2C=2[#*;_[HQ$#<23SH280spe/XlwS/d+%DAJ8%WFM>G<YDS%x6l$YcKq]D;L
T\V;o=L../$:X23>7SkQ-x7W-/V[kdaj8%s2kd;l
)C/ yIZ.s#/+=pc7=1w+*7H*>#[tc3g87%V%cGZv6G2;RxLWs/yO%daj8%wOw0g86Gq
$=.3>1%S+C>2J0'9:x0GX7cv[C./[6g2;rDz[6gQ
7W>':,\S7hHQ$S\ ohHQ$#<23SH23MgSZ=PG[%'=:r.A.+D;qK7337\v;ODz.)mlV6
:zT%-,#97(:\#29YmGX7cv[C./[6g2;rDz[64py
38aj8% Q3rT%7G +%rT%7\) [hV$,t/QN[ .sS5f9ID[69;Oc>':,# 0yMg8641W+z
$80Su#(x't8Kw *6o.-##0-dDxs// yIg8s/o36
e7[%'=+CeC9p#/+=PC9p# 9x v*7%v%CgzV6g2;rXlwS/Yo%DAJ8%W+M6O.#/O_2)0
o#<2c(F2J0'9:x23>60W!M3Gw-gS%x6l.#gS7[Z
FhsS5f=dF#<1w%=[ #<1w+*7H*>#=0kd!8y// yI23mGs6%pg[%'=:=.3>6\s7Hvql
T\) 'fe$%<5U97(:\/F:w./.m0/Qk7336\/Q3 0
'4g2;r[G'WVE:K[zVWVE:=2'7>yWFM>Ga#DS%x6l$,T/q\P .Ss5F9[d:\/ q3RS%[
a 9x%E;7s);OX'T8kS[98dX6Tf%C>':,/ %CehL
)C/ yIZ.)M3v9>Z8yM3v9[(j=YL:R.a.o\;Qk7337%V%c- v6G2;RxZW8Ks+cEcSP8
_+*7J;e#29yM2j0'9Q-x7W-/V[kdaj8%s+kdF7[
4#%x6l8641c+XA8#D1c+XzT%3le9id[62 oC>':,#=0KDpVY// Yi28M'9q=Df#b1Q
$=2'5E]W *6O$%<5uC32HM0S0->G[%'=q=>G'=8
o!k733#/o_[)2[#\;_[)280SPEsxLWs/D+%daj8%wfm>g<yds%X6L$#t5Uc[g'w3eY
8[(jB],:X23>7S);od/$4tFQm3a.sS5fc[a.)3q
7W>':,\S7h1Q$S\ oh1Q$#<23SH23MgSZ=PG[%'=:r.A.+D;qK7337\v;ODz.)m+V6
:zT%-,#97(:\#29YmGX7cv[C./[6g2;rDz[64py
38aj8% Q3 2 D/FQ=xLWs/D+%daj8%wfm>g<yds%X6L$#<2C(f2j0'9:X23>60w Bd/l
TCV[c./[6G2;RdZ[64q
7W>':,*S%9>z6Ymp)+XzT%3le9[(J=y+:r.A.O\;qK7337%v%C- V6g2;rX H9/tqKZ
$8m'9'Rdi.s#29yM2j9/F:w./.m0/Qk7336*/Qkz
FhsS5f]dF#=;e:k[ivw33v9[(j=YL:R.a.o\;Qk7337%V%c- v6G2;RxZW8Ks2cEc7J1q
$=2'sbRW *6O$%<5uC32HM0S0->G[%'=q]>G'=8
o!k733./o_[%q$s\TOH J%7\) [hV$,t/QN[ .sS5f9ID[69;Oc>':,# 0yMg66413')0
o#<2m'V2J0'9:x23>60W!M3Gw-gS%x6l..gS7[Z
FhsS5f]dF#=3e:k[ivw3Pv9[(j=YL:R.a.o\;Qk7337%V%c- v6G2;RxZW8Ks2cEc7=1q
$=2'sbRW *6O$%<5uC32HM0S0->G[%'=q]>G'=8
o!k733./o_[1q$s\TOH :%7\) [hV$,t/QN[ .sS5f9ID[69;Oc>':,# 0yMg66413/)0
o#<2m'V2J0'9:x23>60W!M3Gw-gS%x6l..gS7[Z
FhsS5f]dF#e1w%=$ #e1w+*7H*>#=0kd!8y// yI23mGs6%pg[%'=:=.3>6*s7Hfql
T\) u%+$%<5U97(:\/F:w./.m0/Qk7336*/Q3 0
'4g2;r$G'WyE:K[IVWyE:=2'7>yWFM>Ga#DS%x6l$,T/q\P .Ss5F9[d:\/tq3Rv%[
a 9xuj07s);OX'T8kS[98dX6Tf%C>':,/t%CehL
)C/ yIi.)MJv9>Z6yMJv9[(j=YL:R.a.o\;Qk7337%V%c- v6G2;RxZW8Ks2cEc(P8
_+*7)5<#29yM2j0'9Q-x7W-/V[kdaj8%s2kdF7[
4#%x6l6641)+XA8.D1)+XzT%3le9id[62 oC>':,#=0KDpVY// Yi28M'9q]Df#$1Q
$=2'sbRW *6O$%<5uC32HM0S0->G[%'=q]>G'=8
o!k733./o_i)2[#*;_i)280SPEsxLWs/D+%daj8%wfm>g<yds%X6L$#t5Uc$g'wreY
8[(jJ-4:X23>7S);od/$4tFQm3a.sS5fc$a.)3q
7W>':,*S7h/Q$S\toh/Q$#<23SH23MgSZ=PG[%'=:r.A.+D;qK7337\v;ODI.)mIV6
:zT%;UP97(:\#29YmGX7cv[C./[6g2;rDI[64py
38aj8%TQ3r)%7G 2%r)%7\) [hV$,t/QN[ .sS5f9ID[69;Oc>':,# 0yMg6641M+z
$80S3Cix't8Kw *6o.-##0-dDxs// yIg6s/o36
e7[%'=2CeC5p#/+]PC5p# 9x v*7%v%CgzV6g2;rXlwS/Yo%DAJ8%W+M6O../O_')0
o#<2m'V2J0'9:x23>60W!M3Gw-gS%x6l..gS7[Z
FhsS5f]dF#=1w%=$ #=1w+*7H*>#=0kd!8y// yI23mGs6%pg[%'=:=.3>6*s7H ql
T\) u%+$%<5U97(:\/F:w./.m0/Qk7336*/Q3 0
'4g2;r$G'WJE:K[IVWJE:=2'7>yWFM>Ga#DS%x6l$,T/q\P .Ss5F9[d:\/tq3R:%[
a 9xuj07s);OX'T8kS[98dX6Tf%C>':,/t%CehL
)C/ yIi.)3w+*7H*X#=0kd!8y// yI23mGs6%pg[%'=:=2'SBrw *6o$%<5Uc32j9/FY
88Dx6tF%c>':,/T%cE0
'4-hw97U.-# 9xu)P74#qW[p$U\((E/tP7% -/B:(x# TW[!T8Z(39cIy=+U(/Z
$3.Q+h/*:$.:#+N23/_3q
H0[I:MsQ
.ends iob_obc_ctrl_cz
