** End of subcircuit definition.
************************************
** Library name: rnr_spice_sanjay
** Cell name: iob_obc_ctrl_pc_e
** View name: schematic
************************************
.subckt iob_obc_ctrl_pc_e ff_b loc_gnd loc_vdd mcpd normal_p ts_b
.prot FREELIB
%/Xd66T! 9-U/7g(cE \L
s3w%]>Zj8%P:\0u$sQ3h$_0
'43,c9_\.-#v2C.MJ7%v%C- V7%v%CgzV74#qW[p')4Wi]ajZj5+:r$*P!Jj(6
:I 4\d9Y0*77X -[Bh*x#=+)1-PIJW+j8za0'K-[Z
F>#3w+*7)07tTQm4'$#<2>$xLWs/D+%xZ>mzwI)%-S$#=-/b:(7$;-/xm/_jq
7O[j$S*/+x6l77sKq-XzT%;4:r.A.O\;:=md/7X(cEuY$,q+H/*2\Yq+:00*P[
49+UXzw8k$FC$2[.g  Yih$,T/qn[ $,T/qn[ $#kv<9c*5!;h:ra:ZxuWR%a:$rZ((6
eO8x# 9x/t$\gt99id[62 o9id[62 o9[Ow9#M-'B)97%((E1t$rD((94Uyx8
oU]%2[.G  yIH$%zs[9ID[69;O9ID[69;O9$oW9#m-'b)97%((e1T$Rd((94uYX8
oU]12[.G  yIH$\GT99ID[69;O9ID[69;O9$oW9#m-'b)97%((e1T$Rd((94uYX8
oU]U28m'9'Rdi$s*/+X6L77%V%c- v7%V%c- v7*90Bx4YB+3)9I*p!jJ:=E*57$;-! 2\9QPY
3Mi77GT%=733=#V2c.mj7%V%c- v7%V%c- v7*90Bx4YB+3)9I*p!jJ:0p*p7$k-/z
FhBU3:o>iv7K/2*xFh6C 69CZYX+uC/xL8_jX($128DC z*6uY=#m2)1-5Bjwf]A:zXU+Y
8$\h#2);BAHl
!$ 2y.'l
.ends iob_obc_ctrl_pc_e
