** End of subcircuit definition.
************************************
** Library name: rnr_spice_sanjay
** Cell name: iob_obc_del_n_a
** View name: schematic
************************************
.subckt iob_obc_del_n_a in loc_gnd loc_vccaux out
.prot FREELIB
7O$h$nBW!=XlwS/Y%K=M'7%v%C-A[1$O:]md/%TOcIX4y=+I:ra:ZbVWR%a:$rZ((6
eO6x#vRxXx+7%v%C-A[1$O:r.A.+g/'0e26\TK Mej07X(cE1v$,q+H'/28)qI:0P*==#!<) 0
'\\+:_k2H##=0KD!8Y#=0KD!8Y# uM0'w)-4:dajZ=#=-/Bj)7$;-/XM/_JQ
7O[h$M$2:_k23MgSZ=P23MgSZ=P28\TK Mej07X(3E*S$,q+H'/2\Yq+:00*P[
+!+]6dJ[
.ends iob_obc_del_n_a
