** End of subcircuit definition.
************************************
** Library name: rnr_spice_sanjay
** Cell name: iob_obc_lvlsh_cz
** View name: schematic
************************************
.subckt iob_obc_lvlsh_cz lshout_n_a lshout_n_b lshout_n_c lshout_n_d
+lshout_n_e lshout_p_a lshout_p_b lshout_p_c lshout_p_d lshin_n_a
+lshin_n_b lshin_n_c lshin_n_d lshin_n_e lshin_p_a lshin_p_b
+lshin_p_c lshin_p_d loc_gnd_lev vccaux loc_vdd_lev vcco
+lout_n_x<8> lout_n_x<7> lout_n_x<6> lout_n_x<5> lout_n_x<4>
+lout_n_x<3> lout_n_x<2> lout_n_x<1> lout_n_x<0> lshin_p_x<13>
+lshin_p_x<12> lshin_p_x<11> lshin_p_x<10> lshin_p_x<9>
+lshin_p_x<8> lshin_p_x<7> lshin_p_x<6> lshin_p_x<5> lshin_p_x<4>
+lshin_p_x<3> lshin_p_x<2> lshin_p_x<1> lshin_p_x<0> lshin_n_x<8>
+lshin_n_x<7> lshin_n_x<6> lshin_n_x<5> lshin_n_x<4> lshin_n_x<3>
+lshin_n_x<2> lshin_n_x<1> lshin_n_x<0> lshin_n_y lshout_n_y
+lshin_p_bs lshin_n_es lshout_p_bs lshout_n_es init_vccaux_lvlsh_b
+por_b_vcco lshout_p_y lshin_p_e lshout_p_e lshout_p_es lshin_p_es
+lout_p_x<13> lout_p_x<12> lout_p_x<11> lout_p_x<10> lout_p_x<9>
+lout_p_x<8> lout_p_x<7> lout_p_x<6> lout_p_x<5> lout_p_x<4>
+lout_p_x<3> lout_p_x<2> lout_p_x<1> lout_p_x<0> plvlsel_vccaux
+plvlselb_vcco
.prot FREELIB
7WuY97*=6r0(3-/Y%K.280sUc:Xp[STWFM>Ga#DSF*-2'4/2!=-Gsj4O79czyb8
_f=A:zHj+:=_78o<5<) 2,.Qu:R$*p!-L(9$\h#2);BAJl
)C=6R0>.#/):R0>h#/ Q*x784Ss6k>;\)/=6R0>.-#=0kd!8y/=9\xP[s[!76
:lwS/Yo%DlT+#=<f.MJ6\S998dX6Tf%Cip39HS+C20
'4%YFb;G860WFb;786\S[98zH%/Y%K=M'6%YFb;GX7%v%CgzV6%)69-A[1$Oy
8ID[69;OcI(<7%kAm4'.#/F:w./.m0/QR-L/// Q-z
Fh,9=<FdZ.2#=<F8Z.#/::w[7j69/%54F.,9=<Fd/$,t/QN[ .,<y:\>aGR4q
$r.A.+D;qr2p$,Z*007G86PW!M3Gw-gSF\iUD6\S86
e73+%KaC$GX7%KaW[G660WFM>Ga#DSF*-2<Sgv:r.A.+D;qr2p$,Z*007G660Q
$]ip39<=q\>Agr4W+*7j5h#tF\iUT,0S6K>d$.T5q-Dp[STW!M3Gw-gSF\iUD6*S[6
e73+%KaC$GT7%KaW[G66<WFM>Ga#DSF*-2<Sgv:r.A.+D;qr2p$,Z*007G66<Q
$]ip39<=q\>Agr4W+*7j5h#tF\iUT,0S6K>d$.T5q-Dp[STW!M3Gw-gSF\iUD6*S96
e73+%KaC[Gg7%KaW[G86[W!=8'.+g/'0eG3+%KaC323MgSZ=PG309W6K>;\)8
_fm>g<ydsf*-239hVrXdZ.1##0-dDxs/=6R0>.#/$Y
38)Si# 9XUy07%V%cGZv6%)69-a[m#=0kdPvy/=9\xL//t! c$gE7*=6R0(369/%54Fl
T\) '%s$.%yfB2Lx69/%mxiW8/FQ\>aW7CV[c./[6%yfB;g66pq
7Wip39HS+CP239H#+C[GV7c !xDp[S[!7Cip39HS[9id[62 oCi(<79/%54fL
T%V%c- v6%)69Iudm$2Q=d $4tFQm3a.,9=<FdZ.y8
o!R-L///TQ5xL//C Q]d;$,t/QN[ .,<y:\>aW7%V%c- v6%)69Iudm$2Q]d;l
T*=6R0(369/%54F$#<2C'/26,9=<*I/.+G/09$D:60s6k>D$4tFQm3a.,9=<Fdi.18
o!R-L///TQ*0239h#+c$gt9#=0kd!8y/=9\xP[stwfm>g<ydsf*-239hVrXdi.0zq
$]ip39<=q\>Agr4W+*7j5h#tF\iUT,0S6K>d$.T5q-Dp[STW!M3Gw-gSF\iUD6*S9bZ
Fh,9=<FdZ.)MLv9Iud4\s+cEc*P##+w7g<sG$r3dL<,z*Q-xLWs/D+%dLt+#y%k=m'[
a=0KDpVY/=9\XlwrsS+CeC*p##0-DdXS/=6r0>.#/Oy
38L<,z*Q=dF#i1wfB;786\s7H*q$4\# c-a[1$oQR-L///F:R.a.o\;QR2P$+G/'0E0
o,T/q\P .,<Y:r.MJ6\S7h*Q$4TfqM3A.,9=<fDz.)8
o!R-L/// Q3ry%7%kAw[g8641)+x784Ss6k>;\)/=6R0>.-#=0kd!8y/=9\xP[s[!76
:lwS/Yo%DlT+#=007G8641)+X7w-/v[KDl<,Z*q=DfL
)C=6R0>.#/o_i)239h#+c[g'wre:w[7j69/%54F.,9=<Fd/$,t/QN[ .,<y:\>aGR4q
$r.A.+D;qr2p$,T! C[G'WRE:W./.M0/qr-l/// q3Z
Fh,9=<FdZ.)Miv9Iud4\s+cEc)P##+w7g<sG$r3dL<,z*Q-xLWs/D+%dLt+#y%k=m'[
a=0KDpVY/=9\XlwrsS+CeC)p##0-DdXS/=6r0>.#/Oy
38L<,z*Q=dF#J1wfB;786\s7HUq$4\# c-a[1$oQR-L///F:R.a.o\;QR2P$+G/'0E0
o,T/q\P .,<Y:r.MJ6\S7huQ$4TfqM3A.,9=<fDz.)8
o!R-L/// Q3rJ%7%kAw[g8641C+x784Ss6k>;\)/=6R0>.-#=0kd!8y/=9\xP[s[!76
:lwS/Yo%DlT+#=007G8641c+X7w-/v[KDl<,Z*q=DfL
)C=6R0>.#/o_[)239h#+c[g'w3e:w[7j69/%54F.,9=<Fd/$,t/QN[ .,<y:\>aGR4q
$r.A.+D;qr2p$,T! C[G'W3E:W./.M0/qr-l/// q3Z
Fh,9=<FdZ.)M+v9Iud4\s+cEcpP##+w7g<sG$r3dL<,z*Q-xLWs/D+%dLt+#y%k=m'[
a=0KDpVY/=9\XlwrsS+CeCPp##0-DdXS/=6r0>.#/Oy
38L<,z*Q]d $,z*!=di.y#=0kd!8y/=9\xP[stwfm>g<ydsf*-239hVrXdi.y8
_2R-L/0%s6k>;\)# 9X%J)7*=6R0(3-/y%k.26m's[c-a[m##0-dDxs/=6R0>../;Y
38L<,z*Q=d(/7%kAw[g86<k:w[7j69/%54F.,9=<Fd/$,t/QN[ .,<y:\>aGR4q
$r.A.+D;qr2p$,Z*007G86<K:W./.M0/qr-l/// q*00
'4%YFb;G6d31#+Xl//c q]Df#=JE:r.A.O\;qr2p$+g/09id[69;oCi(<7%vRxDI.)mp(+Z
$6,9=<*Ig<sG$r3xZt%-u>9$L<,z)f-dP[stw2m6gx69/%mx7W-/V[kdL<,z*Q]dF7[
4#F\iUD6*[3hHQ$,Z*!=DI.)m,V9id[62 oCi(<79/%MXlwS/Yo%DlT+#=007G6641#+Z
$6,9=<*Ig<sG$r3xZt%-u>9$L<,z)f-dP[stw2m6gx69/%mx7W-/V[kdL<,z*Q]dF7[
4#F\iUD6*[3h*Q$,Z*!=DI.)mlV9id[62 oCi(<79/%MXlwS/Yo%DlT+#=007G6641e+Z
$6,9=<*Ig<sG$r3xZt%-u>9$L<,z)f-dP[stw2m6gx69/%mx7W-/V[kdL<,z*Q]dF7[
4#F\iUD6*[3hJQ$,Z*!=DI.)mjV9id[62 oCi(<79/%MXlwS/Yo%DlT+#=007G6641w+Z
$6,9=<*Ig<sG$r3xZt%-u>9$L<,z)f-dP[stw2m6gx69/%mx7W-/V[kdL<,z*Q]dF7[
4#F\iUD6*[3hVQ$,Z*!=DI.)mhV9id[62 oCi(<79/%MXlwS/Yo%DlT+#=007G6641)+Z
$6,9=<*Ig<sG$r3xZt%-u>9$L<,z)f-dP[stw2m6gx69/%mx7W-/V[kdL<,z*Q]dF7[
4#F\iUD6*[3h/Q$,Z*!=DI.)m4V9id[62 oCi(<79/%MXlwS/Yo%DlT+#=007G6641P+Z
$6,9=<*Ig<sG$r3xZt%-u>9$L<,z)f-dP[stw2m6gx69/%mx7W-/V[kdL<,z*Q]dF7[
4#F\iUD6*[3huQ$,Z*!=DI.)mIV9id[62 oCi(<79/%MXlwS/Yo%DlT+#=007G6641>+Z
$6,9=<*Ig<sG$r3xZt%-u>9$L<,z)f-dP[stw2m6gx69/%mx7W-/V[kdL<,z*Q]dF7[
4#F\iUD6*[3h%Q$,Z*!=DI.)mUV9id[62 oCi(<79/%MXlwS/Yo%DlT+#=007G6641c+Z
$6,9=<*Ig<sG$r3xZt%-u>9$L<,z)f-dP[stw2m6gx69/%mx7W-/V[kdL<,z*Q]dF7[
4#F\iUD6*[3h Q$,Z*!=DI.)mpV9id[62 oCi(<79/%MXlwS/Yo%DlT+#=007G66413+Z
$6,9=<*Ig<sG$r3xZt%-u>9$L<,z)f-dP[stw2m6gx69/%mx7W-/V[kdL<,z*Q]dF7[
4#F\iUD6*[3h1Q$,Z*!=DI.)m+V9id[62 oCi(<79/%MXlwS/Yo%DlT+#=007G6641(+Z
$6,9=<*Ig<sG$r3xZt%-u>9$L<,z)f-dP[stw2m6gx69/%mx7W-/V[kdL<,z*Q]dF7[
4#F\iUD6\S%9iUD4\S+C>2H#c2q\>Agr4SF\iUD60WFM>Ga#DSF*-2<Sg$R3Z
$3mGs6%pg309wfB;D\%/ Qkx7W-/V[kdL<,z*Q=dal
)C=6R0>..:1M+xL//C Q]dF#=;e:R.a.o\;QR2P$+G/09ID[69;OcI(<7%VrXdi.)MPM+z
$6,9=<*Ig<sG$r3xZt%-u>9$L<,z)f-dP[stw2m6gx69/%mx7W-/V[kdL<,z*Q]dFl
)C=6R0>..:1C+xL//C Q]dF#=-e:R.a.o\;QR2P$+G/09ID[69;OcI(<7%VrXdi.)MPC+z
$6,9=<*Ig<sG$r3xZt%-u>9$L<,z)f-dP[stw2m6gx69/%mx7W-/V[kdL<,z*Q]dFl
)C=6R0>..:13+xL//C Q]dF#=3e:R.a.o\;QR2P$+G/09ID[69;OcI(<7%VrXdi.)MP3+z
$6,9=<*Ig<sG$r3xZt%-u>9$L<,z)f-dP[stw2m6gx69/%mx7W-/V[kdL<,z*Q]dFl
)C=6R0>..:1(+xL//C Q]dF#J1wfm>gA#dsf*-2<sGV:R.a.+d;QR2P$,t! c$g'w;eY
8$L<,z)fc-a[1$o:=2'5Bvw2R-L/0%FQ\>aW7*V;c3g<sGV:w./.m0/QR-L///TQ3z
Fh,9=<Fdi.-zwfB;786*s[BxLWs/D+%dLt+#y%k.23mGs6%pg309wfB;D\%/TQ-00
o.%YFb2l.+g/'0e280sUc:XI3+%K9r3G<Sgv:].3.-/Y%K.2HM0S0->G3+%KaC$GX98
o!R-L///TQkxL//C Q]da$,t/QN[ .,<y:\>aW7%V%c- v6%)69Iudm$2Q]dal
T*=6R0(369/%54F$#<2C'/26,9=<*I/.+G/09$D:60s6k>D$4tFQm3a.,9=<Fdi.s8
o!u/:$,z*!=dZ.2# 9XUy074#Qw[P$u\(39IZYX++W/xZ 4\D9y0*77xT-'xL6_jX($10
o.:#+n23/_3Q
H0[I:MsQ
.ends iob_obc_lvlsh_cz
