** End of subcircuit definition.
************************************
** Library name: rnr_spice_sanjay
** Cell name: iob_obc_del_p_a
** View name: schematic
************************************
.subckt iob_obc_del_p_a in loc_gnd loc_vcco out pdelsel_vccaux pdelsel_vcco
+pdelselb_vccaux pdelselb_vcco
.prot FREELIB
%/X T,/#+xXp/9#/-SBY [
49+x%2wrsW2%2l/0%fq\>Agr4W!=XlwS/d+%Xz>MZ203u)$UqUHIXlyx+I:=e*s7$;-/XM/_JQ
7= E57D)FC8zJ7*;9r0(369/%54f$4\WFM>Ga#DW+O.UJM43m9c*5!RWF)1-)7\O-UXMV_JWRba:L
)K  /xD\%#TO*Iut,/y%k=m'7d)fc8Zj7%V%cGZv7\90B7D'J;wI)%-07%((e/28)Q3:0p*p7$k-/z
F>#SP:R.a.o\;:%2L.4\2:R.a.o\;:R.a.o\;:=MD/%toMux4YJ+4:RA)z<#!O)12\9Q+Y
3Mij=#VrXxiv0%k9RdP[stw!=xLWs/y%k.26\tk mE)S7x(Cev23_jXCsxZ'_;wr%A:$Rz((6
eO6%JW00726Y<=<*i/.+g/09P(36c  9id[69/%MXI>MZ203u)$UqUHIXlyx+Ue9[fyj#!o)12\9q+y
3$'7e]wO*Igh#Sw2%2L/0%FQ\>aW7C :R.a.+G/09$oW9SV7uU2,_-Xp9I*p!-L:=E*S7$;-/xm/_jq
H0[I:MsQ
.ends iob_obc_del_p_a
