** End of subcircuit definition.
************************************
** Library name: rnr_spice_sanjay
** Cell name: iob_obc_lvlsh_n_c
** View name: schematic
************************************
.subckt iob_obc_lvlsh_n_c in init_vccaux_lvlsh_b loc_gnd loc_vccaux loc_vdd
+out
.prot FREELIB
7O$)$4\f:W[23MgS6%P23MgS6%P26\TK:da:ZEuWF)1-PI# 7) :$rD(*[XM/_3Q
%[X78-#=0KD!8Y#/-[/-)d8
/C9_ xg#=0kd!8y#/-:bH [
g3:=2'g7%v%CgzV7g(eE*\L
)K  [x\v-Ww!=323mGsz=p23mGsz=p28\tk mEJ07x(3e/y$,Q+h'/28)QP(94 Y33wrBAHl
)K  (xD\%# 9X=23mGsz=p23mGsz=p28\tk mEJ07x(39I*p!-i:0p*p7$k-/z
F>#SL:m4'$4\F:R.a.o\;:R.a.o\;:=MD/%toCix4Y=+i)9I*p!-i:=E**7$;-! 2\9QP:=GaW#QuY
3MZj=jw+*7;$4\wfm>gA#dwfm>gA#dw+o.ujm4up9C*7!vH:RA:zBvw+3AHp7$;-! 2\9QPY
3Mij=vw+*7e07\) 5xLWs/y%k=m'7%V%c-a[1$o:]MD/%toCix4Y=+L#9I*p!-i:=E*)7$;-! 2\9QP:=GaW#QuY
3Mij=Uw+*7e;7:;[4xLWs/y%k=m'7%V%c-a[1$o:]MD/%toCix4YJ+3>9I*p!-i:0p*p7$k-/z
F>.SPE9[(j1##+9[(je]wfm>g<sG$r3xi>mz203%+$uQ3hu/23_jXC:xmv_jwrBA:l
)KT [ 2WRSw!=3280S,p9ID[69/%54F$.KV<X.F5<#m-[bV;7%((e%s$#4(>94 Y33wrBAH$#2/0=AJl
)KT [v280S$:w[7j69/%54F.,9=<Fd/$,t/Q\>aGR4wfm>g<sG$r3xi>mz203%+$uQPh'xLYX+u>94 YX#!<)10
'\*23UX\V-wW!=3280s,39id[69/%54f$.kv<x.f5<#M-UB))7%((E%S$rD((94Uyx8
oU]7H57\) ( 280S$:R.a.+G/'0E23mGs6k>;\)#TUm0'W)-4:DA)zJvwf)1-5H#!O)12\9Q+Y
3MZS7C [98Z$,t/QN[ $,t/QN[ $#KV<9C*7!5wf)1-pi# 7)U2\yQ+:00*p[
+!+]6dJ[
.ends iob_obc_lvlsh_n_c
