** End of subcircuit definition.
************************************
** Library name: rnr_spice_sanjay
** Cell name: iob_obc_lvlsh_n_y
** View name: schematic
************************************
.subckt iob_obc_lvlsh_n_y in init_vccaux_lvlsh_b loc_gnd loc_vccaux loc_vdd
+out
.prot FREELIB
7O$'7I# 9xFj$dDf.9id[69/%54f$,T/q\>Agr4W2O.UJM4UP9c*77%((E%v$rD((94Uyx8
oU]7H77t! 98Zx7\) s123mGs6k>;\)#TUm0'W)-4:DAJz<Uwf)1-5H#!O)12\9Q+:=GaW#QuY
3Mij=;wt%3]$4\F:=2'($#=0kdP[s[!79$oW9SV7'v2,_3wf)1-5>#!O)12\9Q+Y
3Mij=rw+*7;$4\# c-a[1$oQR-L///F:R.a.+G/'0E23mGs6k>;\)#TUm0'W)-4:DAHzB#=-/bJ)7$;-/xm/_jq
7O$'7b# 9x*Y$#<2'9id[69/%54f$,T/q\>Agr4W2O.UJM4UP9c*77%((E%v$rD((94Uyx8
oU]7H)7\) s1280S$:R.a.+G/'0E23mGs6k>;\)#TUm0'W)-4:DAJz<Uwf)1-5H#!O)12\9Q+:=GaW#QuY
3Mij=Yw+*7;$4\w+*7e57%V%c-a[1$o:]MD/%toCix4Y=#=-/bJ*7$;-/xm/_jq
7O['77:;[4X78-#=0KD!8Y#=0KD!8Y# uM0'w)-4:da)Z$5WF)1-5h#!o)12\9q+y
3MZj>#VrXx78-#=0kd!8y#=0kd!8y# Um0'W)-4:DA)zeYwf)1-5H#!O)12\9Q+:=GaW#QuY
3MZj=jw+*7;$4\wfm>gA#dwfm>gA#dw+o.ujm4up9C*S!5H:RA:zBvwr%A:$Rz((6
eO8%]W007280s$:r.A.O\;:r.A.O\;:=md/%TOcIX4y=#=-/Bj)7$;-/XM/_JQ
7O$)$4\f:W[23MgS6%P23MgS6%P26\TK:dahZI#=-/B:(7\O-'XMV_.p:00*7[
g+:W[/$,T/qn[ $Sqp3jZ
F>#;w!=32h##=0kd!8y#=0kd!8y# Um02,_3XW9I*p!jJ:0p*p7$k-/z
-\#*50Xz
.ends iob_obc_lvlsh_n_y
