** End of subcircuit definition.
************************************
** Library name: rnr_spice_sanjay
** Cell name: iob_obc_ctrl_nc_b
** View name: schematic
************************************
.subckt iob_obc_ctrl_nc_b cnnd ctsb ff_b loc_gnd loc_vdd mcnd normal_n term
+ts_b
.prot FREELIB
%/X\ 79K<9>*7!5[y
k 2 D/F29-u/7G(pe \l
s-w%=>Zj8%P:\0u$sQP3e*\l
)KTW9[D:\[=Q=x(v89s[9>Z[#S5f[xPvy#TUm02,_3X)(xLYX++W9[FY<#!O)12\9Q+Y
3Mi)7\) [%:$#<2#2xLWs/yO%xLWs/yO%xi>mzwI) -)$#=-/b:(7\o-'xmv_.P:00*7[
492'XA8S\2;r 2J9/f:r.A.+D;:r.A.+D;:]md/7X(3EJE$,q+H/*28)q4:0P*P7$K-/Z
F>.jw%=>Zj8%P:=2'7HYwfm>g<ydwfm>g<ydw2o.u$uQPh2f23_jX($xZ'_rwr%A:$Rz((6
eI7x# 9xHS$0D569id[69;o9id[69;o9$Ow9#M-[BY;7%((E1t$#4(P94 yx#!<)10
'\*3:=.3>1%S+9[(J=-+:=2'*h#=0KDpVY#tuM02,_3x)(Xlyx++w9[fy<#!o)12\9q+y
3Mi97\) (j2[%zF:R.a.+d;:R.a.+d;:]MD/7x(3e/y$,Q+h/*2\yQ+:00*p[
492IXzT%]h:=2'7j5WFM>G<YDWFM>G<YDW2O.U$UqpH:J23_Jx($XMV_JWRba:L
)KT39>Z[#S5f[x\ 60T:R.a.+d;:R.a.+d;:]MD/7x(3eje$,Q+h/*28)Q4:0p*p7$k-/z
F>#-w%=>Zj8%P:X0gx7\) [1V$,t/QN[ $#KV<9C*7!UH:RA:zXUw+3AT$Rd((94uYX8
oU= 280SP(sx\ 60T:=2'7=5wfm>gA#dw+o.u$uQPh$j23_jX($xZ'_Uwr%A:$Rz((6
eO8<# 9x h57\) [uY$,T/qn[ $,T/qn[ $#kv<9c*7!JI:ra:ZxuWR%a:$rZ((6
eO8x# 9x h97\) [/v$,T/qn[ $,T/qn[ $#kv<9c*7!uh:ra:ZxuW+3at$rD((94Uyx8
oU=/280SPC/xZt%]H:R.a.o\;:R.a.o\;:=MD/7x(3e1s$,Q+h/*2\yQ+:00*p[
49+UXzT%3U#92 :+/f:r.A.O\;:r.A.O\;:=md/7X(3E/23_Jx($Xz'_;WR%a:$rZ((6
ez7x# 0Ym;36\W+*7h5x# 9x j;7%v%CgzV7\90bX4y=+I:ra:ZxuW+3a)$rD((94Uyx8
oU=j280S,)9>'/-# 9X H57%V%cGZv7\90Bx4Y=++>9I*p!jJ:0p*p7$k-/z
FhB5i:k[Zv7\) [Uy$)Cs!=-2,#Q+h'%:$,\((e1Tp7\[!=G(:9QP:D$*p!-u(6
:l6_Jx($126dc Z*6Uy=8
o!'je$D:s[9_\$)Cs!=-2,#Q+h: :$,\((e1Tp7\[!=G(:9QP:D$*p!YH(9IiYX++W/z
$6DC z*6uY=8
o!'jV$D:wtJd/674#Qw[P$u\(3eUTp7% -/b:(X# tw[!t8z(39CiY=+4(/xL6_jX($10
o.:#+n23/_-Q
7W%S*7<;;\X(V89S[9e7.4\Y:d[*P!-U(9izyx++w/Xz 4\d9Y0*77Xt-/Bj5x8
_f]A:zXU+:]_78o<5<) 0
'4-4>97(:\#9%=P2TY'Y:38G81\;c9czyx+Uc/Xl8_Jx($128dc Z*6Uy=#M2)1-5bJQ
$r$*P!Jj(9$\H#2);bahL
)Cup(xa8#dwUk[ $#<23:h2'4/ '=pJ$u\((e%Jp7% -/b:(X# tw[!t8z(39CiYX+uC/z
$3.Q+h/*:$.:#+N23/_3q
7O[t$#T5u5iG87<;;\XA8S\2;r 2<9ZW+O.U3+sWi) -($#=-/B:*7\O-SXMV_.p:00*7[
+!+]6dJ[
.ends iob_obc_ctrl_nc_b
