** End of subcircuit definition.
************************************
** Library name: rnr_spice_sanjay
** Cell name: iob_obc_pred_n_a
** View name: schematic
************************************
.subckt iob_obc_pred_n_a gtl0 gtl1 gtl2 loc_gnd loc_vccaux nslew0 nslew1
+nslew2 nslew3 nslew4 nslew5 opn opn_del opni opni_del
.prot FREELIB
7O$')$# 9x t57%v%C-A[1$O:r.A.+g/'0e23MgS6K>;\)#tuM0'w)-4:dah$,q+H'/2\Yq+:00*P[
492x/280sU)/Xz/,<M>9id[69/%54f$,T/q\>Agr4W2O.UJM4UP9c*7!uh:ra:ZbVW+3aS$rD(*[XM/_3Q
7O$'(7\) 'J:$#Z=9d 23MgS6K>;\)#=0KDp[S[!79$Ow9sv7'V2,_3xw2Xlyx+Ie94 yx#!<)10
'\*2c9[(J=uU:r.A.+g/'0e23MgS6K>;\)#=0KDp[S[!79$Ow9sv7'V2,_3x(UXlyx+Ue94 yx#!<)10
'\*2cSXzT%-h(9id[69/%54f$,T/q\>Agr4WFM>G<Sg$R3XI>MZ203%+$UqpH[Xlyx+U>94 yx#!<)10
'\*2>IXzT%3jc9id[69/%54f$,T/q\>Agr4WFM>G<Sg$R3XI>MZ203%+$UqpH[Xlyx+U>94 yx#!<)10
'\*2>$XzT%3jc9id[69/%54f$,T/q\>Agr4WFM>G<Sg$R3XI>MZ203%+$Uqp:ra:ZbVWR%a:$rZ((6
eO6%yW+*7j9x# <r24P7%v%C-A[1$O:r.A.+g/'0e26\TK Mej07X(39i*P!R4:0P*P7$K-/Z
F>.SuW9[(j=Uu:R.a.+G/'0E23mGs6k>;\)#=0kdP[s[!79$oW9SV7'v2,_3wf)1-0<#!O)12\9Q+Y
3MijBvw+*7J9X#=0kdP[s[!79ID[69/%54F$,t/Q\>aGR4w2o.ujm4up9C*77%((e%s$Rd((94uYX8
oU]7J97\) [*J$,t/Q\>aGR4wfm>g<sG$r3xLWs/y%k=m'7*90B7D'BrwI) 23_jXC:xmv_jwrBA:l
)KT 'v280SPW'xLWs/y%k=m'7%V%c-a[1$o:R.a.+G/'0E26\tk mEJ07x(39I*p!-i:0p*p7$k-/z
F>.SuC9[(jB5+:R.a.+G/'0E23mGs6k>;\)#=0kdP[s[!79$oW9SV7'v2,_3wf)1-0<#!O)12\9Q+Y
3MijJUw+*7H(B#=0kdP[s[!79ID[69/%54F$,t/Q\>aGR4w2o.ujm4up9C*77%((e%V$Rd((94uYX8
oU]7J;7\) [*J$,t/Q\>aGR4wfm>g<sG$r3xLWs/y%k=m'7*90B7D'BrwI) 23_jXC:xmv_jwrBA:l
)KT uj280Su)/xLWs/y%k=m'7%V%c-a[1$o:R.a.+G/'0E26\tk mEJ07x(39I*p!vL:0p*p7$k-/z
F>.S3p9[(jB5+:R.a.+G/'0E23mGs6k>;\)#=0kdP[s[!79$oW9SV7'v2,_3wf)1-5H#!O)12\9Q+Y
3MijJvw+*7H(B#=0kdP[s[!79ID[69/%54F$,t/Q\>aGR4w2o.ujm4up9C*7!3wf)1-5H#!O)12\9Q+Y
3Mije# 9X%yp7%V%cGZv7%V%c-a[1$o:R.a.+G/'0E26\tk mEJ07x(CeU23_jXC:xmv_jwrBA:l
)KT uU280SPW'xLWs/y%k=m'7%V%c-a[1$o:R.a.+G/'0E26\tk mEJ07x(39I*p!-i:0p*p7$k-/z
F>.SuM9[(jB5+:R.a.+G/'0E23mGs6k>;\)#=0kdP[s[!79$oW9SV7'v2,_3wf)1-5H#!O)12\9Q+Y
3MijJ-w+*7J9X#=0kdP[s[!79ID[69/%54F$,t/Q\>aGR4w2o.ujm4up9C*77%((e%V$Rd((94uYX8
oU]7)77\) [*J$,t/Q\>aGR4wfm>g<sG$r3xLWs/y%k=m'7*90B7D'BrwI) 23_jX>sxmv_jwrBA:l
)KT u1280Su)/xLWs/y%k=m'7%V%c-a[1$o:R.a.+G/'0E26\tk mEJ07x(39I*p!-i:0p*p7$k-/z
F>.S4:=2'5$jw+BI(,J#=0kdP[s[!79ID[69/%54F$.KV<X.F5<#m-[bT97%((e%s$#4(C94 Y33wrBAHl
)KT [%280SPW'xZ/,<mM9ID[69/%54F$,t/Q\>aGR4w2o.ujm4up9C*7!UH:RA:zBvw+3AJ$Rd(*[xm/_3q
7O$'7h# 9x t57\KF*cj$,T/q\>Agr4WFM>G<Sg$R3XI>MZ203%+$UqpH$J23_Jxc:XMV_JWRba:L
)KT i 280Su)/xLWs/y%k=m'7%V%c-a[1$o:R.a.+G/'0E26\tk mEJ07x(39I*p!-i:0p*p7$k-/z
F6B3H:=2'7i-w+BI(,X#=0kdP[s[!79ID[69/%54F$.KV<X.F5<#m-[xLYX+4p94 YX#!<)10
'\*23/Xd6##v2=8280spw'XlwS/Y%K=M'7*90b7d'bRWi)V23_Jxc:Xz'_RWR%a:$rZ((6
eO6%;W+*7j9x# <r2407%v%C-A[1$O:r.A.+g/'0e26\TK Mej07X(3E*Y$,q+H'/28)q4:0P*P7$K-/Z
F6=UH:=2'7i-wfm>gA#dwfm>g<sG$r3xLWs/y%k=m'7*90B7D'BrwI)%-S7%((e%s$Rd((94uYX8
oU]7y$#<2C21289%)I'xLWs/y%k=m'7%V%c-a[1$o:]MD/%toCix4Y=+J)9I*p!-i:0p*p7$k-/z
F>.SP)9.i86d)f9.i84/;9RxZt%-H(9ID[69/%54F$.KV<X.F5<#m-ixLYX+u>9[FY<#!O)12\9Q+Y
3Mij=;w+*7H(B# <R2477%V%c-a[1$o:R.a.+G/'0E26\tk mEJ07x(3e*y$,Q+h:h2\yQ+:00*p[
492x +$#<2c2123MgS6K>;\)#=0KDp[S[!79id[69/%54f$.kv<x.f5<#M-[B:s7%((E%v$rD((94Uyx8
o2[*J$#<23$%289%)I:xLWs/y%k=m'7%V%c-a[1$o:]MD/%toCix4Y=+J)9I*p!-i:=E*)7$;-! 2\9QPY
3Mij<jw+*7H(B#=0kdP[s[!79ID[69/%54F$,t/Q\>aGR4w2o.ujm4up9C*77%((e%s$Rd((94uYX8
oU]7s;7\) [*J$,t/Q\>aGR4wfm>g<sG$r3xLWs/y%k=m'7*90B7D'BrwI) 23_jXC:xmv_jwrBA:l
)KT :h280SPW'xLWs/y%k=m'7%V%c-a[1$o:R.a.+G/'0E26\tk mEJ07x(39I*p!-i:0p*p7$k-/z
F>.S3E9[(jB5+:R.a.+G/'0E23mGs6k>;\)#=0kdP[s[!79$oW9SV7'v2,_3X39I*p!-i:0p*p7$k-/z
F>.S3#9[(jB5+:R.a.+G/'0E23mGs6k>;\)#=0kdP[s[!79$oW9SV7'v2,_3X39I*p!-i:0p*p7$k-/z
F>.Si>9[(j=Uu:R.a.+G/'0E23mGs6k>;\)#=0kdP[s[!79$oW9SV7'v2,_3X39I*p!-i:0p*p7$k-/z
F>.Si(9[(jB5+:R.a.+G/'0E23mGs6k>;\)#=0kdP[s[!79$oW9SV7'v2,_3wf)1-5H#!O)12\9Q+Y
3MijH3w+*7J9X#=0kdP[s[!79ID[69/%54F$,t/Q\>aGR4w2o.ujm4up9C*77%((e%s$Rd((94uYX8
oU]7s57\) 'j:$,t/Q\>aGR4wfm>g<sG$r3xLWs/y%k=m'7*90B7D'BrwI) 23_jXC:xmv_jwrBA:l
)KT :U280Su)/xLWs/y%k=m'7%V%c-a[1$o:R.a.+G/'0E26\tk mEJ07x(39I*p!-i:0p*p7$k-/z
F6e# 9X T57\kf*C+$,t/Q\>aGR4wfm>g<sG$r3xi>mz203%+$uQPh$j23_jXC:xZ'_rwr%A:$Rz((6
eO8%;W+*7)sj#d r 23MgSZ=P23MgSZ=P28\TK Mej07X(3E%23_Jxc:Xz'_VWR%a577$K-[Z
F>#S4:=2'SJ;wfm>g<sG$r3xLWs/D+%xLWs/D+%xZ>mz203%+$uQPh'j23_jXC:xmv_jwrBA:l
)\u(sxZt%;u39ID[62 O9ID[62 O9ID[62 O9[oW9SV7'v2,_3XC2xLYX+iE94 YX#!<)10
'\\2c9[(Jj;3:n7l57%v%CgzV7%v%CgzV7\90b7d'bRWi)%-57%((E%S$#4(>94 y33WRbahL
)K  /xZt%;u39G'3B#=0kd!8y#=0kd!8y# Um0'W)-4:DAHzi5wf)1-5H# 7)/2\yQ6394uY=8
oU=7y$#<2MuU23mGsz=p23mGsz=p23mGsz=p28\tk mEJ07x(3e%y$,Q+h:h2\yQ+:00*p[
4 3U%2w.\W0][7$#<2m' 23MgSZ=P28\TK Mej07X(mE%23_Jxc:Xz'_VWR%a577$K-[Z
F>#Si:=2'SJ;wzXI:$,t/QN[ $,t/QN[ $#KV<X.F5<#m-[bJ$,Q+h'/28)Qu:0p*==#!<) 0
'#3hc9[(Jj-p:r.A.+g/'0e23MgSZ=P23MgSZ=P28\TK Mej07X(3E%Y$,q+H'/2\Yq+:00*P[
4 (9[(Jj-p:n7l77%v%CgzV7%v%CgzV7\90b7d'bRWi) -;b#=-/Bj)7\O-'XMV_.p:00*7[
4 3$V280s3c[X!J,JWFM>Ga#DWFM>Ga#DW+O.UJM4UP9c*7!]U:ra:ZbVWR%a:$rZ((6
eO8%uW0][GV0%W0][7$#<2mUu23MgSZ=P28\TK Mej07X(>9i*P!-I:=e*)7$;-! 2\9qpy
e4Z68t2Y
.ends iob_obc_pred_n_a
