** End of subcircuit definition.
************************************
** Library name: rnr_spice_sanjay
** Cell name: iob_obc_ctrl_nc_a
** View name: schematic
************************************
.subckt iob_obc_ctrl_nc_a cnnd ctsb ff_b loc_gnd loc_vdd mcnd normal_n term
+ts_b
.prot FREELIB
%/X\ 79K<9>*5!V[y
k 2 D/F29-u/7G(We/\l
s-w%=>Zj8%P:\0u$sQPWe%\l
)KTW9[D:\[=Q=x(v89s[9>Z[#S5f[xPvy#TUm02,_-X)9I*p!jJ:=E*07$;-/xm/_jq
7O$Y$#<2#'XAJ90WFM>G<YDWFM>G<YDW2O.U$UqUH'V23_Jx($XMV_JWRba:L
)KT>9[(j=3u:=2';B#=0kdPvy#=0kdPvy#TUm02,_-XCixLYX++W9[FYB#!O)\H$Rz(36
eO6b#/+K[':,3W bD/$,T/q\P $,T/q\P $.kv<9c*5!5WF)1-PI# 7)V2\Yq+:00*P[
4t3/XzT%y,:*P3<7%v%C- V7%v%C- V7*90bX4yb+j:ra:ZxuW+3a+$rD((94Uyx8
oU]U28m'9'RdZ$#<23[%280SL#9ID[69;O9$oW9#m-'bT$,Q+h/*28)Q4:0p*p7$k-/z
F>.rw+*7e57\) [Uy$,t/Q\p $,t/Q\p $.KV<9C*5!-4:RA:zXUwr%A:$Rz((6
eO6=#/+K[':,3WTjD/67%v%C- V7%v%C- V7*90bX4yb+h:ra:ZxuW+3a+$rD((94Uyx8
oU]12[#G  yIH$#<23:h23mGs6%p23mGs6%p26\tk:DAJz$#=-/b:(7\o-ixmv_jwrBA:l
)K p9[(j=ji:=2'7J5wfm>gA#dwfm>gA#dw+o.u$uQPh2xLYX++W94 YX#!<)10
'\\3:=2'7xyW9%6p.-#=0KD!8Y#=0KD!8Y# uM02,_-x3IXlyx++w9[fyj#!o)12\9q+y
3MZ)7\) [ J$#<2#'xLWs/D+%xLWs/D+%xZ>mzwI) -97%((e1T$Rd((94uYX8
oU= 280SP32x\ 60T:=2'7BYwfm>gA#dw+o.u$uQuh$xLYX++W9[FYi#!O)12\9Q+Y
3MZ97\) (%2[%zF:=2'7Xvwfm>gA#dw+o.u$uQPh2xLYX++W94 YX#!<)10
'#3+:=.3>1%S+9[(J=3U:=2'7xyWFM>Ga#DW+O.U$UqUH[V23_Jx($Xz'_;WR%a:$rZ((6
eO8x# 9x j*7\) [/v$,T/qn[ $,T/qn[ $#kv<9c*5!uWF)1-PI# 7)*2\Yq+:00*P[
49+'XA8S\2;r 2J9/f:=2'7=5WFM>Ga#DW+O.U$UqUH$Xlyx++w9[fyI#!o)12\9q+y
38J9H#/+=p280SPM2xFh6C 69CZYX+uC/xL8_jX($128DC z*6uY=#m2)1-5Bjq
$r$*P!Jj(9$\H#2);bahL
)Cu)(x\ 60wtJxFh6C 69CZYX+HM/xL8_jX($128DC z*6uY=#m2) -SBjwf]A:zXU+Y
8$\h#2);BAHl
)Cu)sx\ 7:[Q-$2'4/#+\x48_-X3[123#Q+h/*:$#:#+N23/_3wI]AJzJ-+:R$*p!jJ(6
:I 4\d9Y0*5[
4#c:H2TY'Y:*P3<60W7WD78+#M+)1-5bJWF=a:Zxu+:=_78O<5<) 2,.q+H'%:L
T%T-/b:(X#Ttw[!t8z(36
e75<VW *6O$\g o92 :+#O!C[;8Y-Wi=a:Zb-+:r[*P!Jj(9[\H#2);bah$U*((E%jP[
a=2)1-PIJW2j8za0'K-[Z
FhBr,:k[Zv7K/+%xZt%3iE9E7.#[ O'x48_jXC'123#Q+h/*:$#:#+N23/_3wI]A:zB-+Y
8IiYX++W/xi 4\D9y0*7[
49+$Xzw8k$FC[2TY'Y:K[A8%'=39-U/7\90bipJ7X(cE*23_Jx(SXz'_yWR%a577$K-[Z
-\#*50Xz
.ends iob_obc_ctrl_nc_a
