** End of subcircuit definition.
************************************
** Library name: rnr_spice_sanjay
** Cell name: iob_obc_ctrl_pc_es
** View name: schematic
************************************
.subckt iob_obc_ctrl_pc_es cnpd ctsb ff_b loc_gnd loc_vdd normal_p term
+term_b ts_b
.prot FREELIB
%/Xd66T! 9-U/7g(mEH\L
s3w%]>Zj8%P:\0u$sQHhu_0
'4-h>9>z6Y# 9x*)$)cS!=-2,#q+H'%:$,\((E1tP7\[!=g(:9qp:d$*P!-U(6
:l6_Jx($126dc Z*6Uy=8
o!'*+$s\TO9[(jirw7wd78+#m+)1-5Bjwf=A:zXU+:=_78o<5<) 2,.Q+h'%:l
T%T-/b:(X#Ttw[!t8z(36
eO6h# 0Ym;36*W%]>zJ8%p:=2'(>#=0KDpVY#tuM02,_-xm2Xlyx++w9[fyh#!o)\h$rZ(36
eO6I# 0Ym;36*W+*7v;7\) [1+$,T/q\P $.kv<9c*5!;h:ra:ZxuW+3aS$rD(*[XM/_3Q
7O$j$S*/+x6l77sKq-XlwS/Yo%XlwS/Yo%XI>MZWi)%-s$#=-/B:(7\O-'XMV_.p:00*7[
492(XzT%y,:=2'(j#=0KDpVY#=0KDpVY#tuM02,_-xm2Xlyx++w9[fyb#!o)\h$rZ(36
eO6x#/2K[':,3W+*7t07%v%C- V7%v%C- V7*90bX4yb+3)9i*P!Jj:=e*57$;-! 2\9qpy
3Mi*7\) sf2[%zF:R.a.+d;:R.a.+d;:]MD/7x(CeUy$,Q+h/*28)Qu:0p*==#!<) 0
'\*p:K$A8%'=39.I.M$2:r.A.+D;:r.A.+D;:]md/7X(cEuY$,q+H/*28)qU:0P*==#!<) 0
'\*h:=2'7xRW *6O.-#=0KDpVY#=0KDpVY#tuM02,_-xm2Xlyx++w9[fyh#!o)\h$rZ(36
eO6j# 9x*v$%<5u9id[69;o9id[69;o9$Ow9#M-'B)97%((E1t$#4(>94 y33WRbahL
)K E9[(j=33:=2'(J#=0kd!8y#=0kd!8y# Um02,_jXE2xLYX++W9[FYH#!O)\H$Rz(36
eO8E# 9xHE$SsK[9[(J=33:r.A.O\;:=md/7X((EHY$,q+H/*28)qI:0P*==#!<) 0
'\\I:=2'7b3W *6O.-#=0KD!8Y#=0KD!8Y# uM02,_-xm2Xlyx++w9[fyb#!o)\h$rZ(36
eO8$# 0Ym;36*W+*7v;7\) [%E$,T/qn[ $#kv<9c*5!;h:ra:ZxuW+3aj$rD(*[XM/_3Q
7O[t$#<23'F2J0'9:r.A.O\;:r.A.O\;:=md/7X(cEuY$,q+H/*28)qU:0P*==#!<) 0
'\\+:=2'7j;W+*7t07%v%CgzV7%v%CgzV7\90bX4yb+3)9i*P!Jj:=e*57$;-! 2\9qpy
3MZ57GT%=733=#2<c3280SP>[xLWs/D+%xZ>mzwI)%-S$#=-/b:(7\o-'xmv_.P:00*7[
49+[XzT%3I39.I.M$2:=2'7j;WFM>Ga#DW+O.U$UqUHUJ23_Jx($Xz'_-WR%a577$K-[Z
F>#;w+m6oG,/T:k$a8%'=39[(j=-P:R.a.o\;:=MD/7x(CeUy$,Q+h/*28)Qu:0p*==#!<) 0
'\*4:M$GwrsWTjD/$,T/q\P $+D;:]md/7X(cEuY$,q+H/*28)qU:0P*==#!<) 0
'\\4:M$GwrsWTjD/$,T/qn[ $+ZK:=md/7X(cEuY$,q+H/*2\Yq+:00*P[
+!+]6dJ[
.ends iob_obc_ctrl_pc_es
