** End of subcircuit definition.
************************************
** Library name: rnr_iob
** Cell name: iob_lvds_lvlshf_data
** View name: schematic
************************************
.subckt iob_lvds_lvlshf_data in loc_gnd loc_vcc loc_vdd out por_b
.prot FREELIB
7=V23MgSZ=P23MgSZ=P23MgSZ=P23MgSZ=P28\TK Mej07X(3E/h$,q+H'/2\Yq+:00*P[
4 >9.MJ7\) :H280sS(2*23MgSZ=P28\TK Mej07X(mEVh$,q+H'/2\Yq+:00*P[
4 c9[(J6]+:W[23MgSZ=P23MgSZ=P28\TK Mej07X(eE/h$,q+H'/2\Yq+:00*P[
4 3SH280sl398z$,T/qn[ $,T/qn[ $#kv<x.f5<#M-/B+$,q+H'/28)q,:0P*P7$K-/Z
F8i#VrXxZt%/,(9ID[62 O9ID[62 O9[oW9SV7'v2,_33hixLYX+u>94 YX#!<)10
'\\2(9[(J>3W!=XlwS/d+%XlwS/d+%Xz>MZ203%+$UqUH2F23_Jxc:Xz'_RWR%a:$rZ((6
eO8%3W+*7v77c :r.A.O\;:r.A.O\;:=md/%TOcIX4yb+j:ra:ZbVWR%a:$rZ((6
ez97\) CF:$#<2>SXlwS/d+%XlwS/d+%Xz>MZ203%+$Uq+HUH23_Jxc:XMV_JWRba:L
)CPE/x787C [9ID[69;O9ID[62 O9E7.4\y73E2,.Qihs1:$,*((e1Tp7*[!=G(:9QPY
8CZYB+i(/xL8_jX($128DC z*6uY=8
o+/xZt%vL:w[/$,t/QN[ $,t/QN[ $#KV<X.F5<#m-[v-9=#=-/bJ)7$;-/xm/_jq
7O$'77\) C1Y(7%v%CgzV7%v%C-A[7%v%C-A[7*90b7d'bRWi) :$,q+H'/2\Yq+:00*P[
4t(9[(J63U(9[(J>3WFM>G<SgWFM>G<SgW2O.UJM4UP9c*7x+IP9i*P!-I:=e*57$;-! 2\9qpy
3MijX# 9X/V$.t5Q-xLWs/y%kxLWs/y%kxi>mz203%+$uQPh/xLYX+u>94 YX#!<)10
'.-+#9[(J63pc9.MJ7%v%C-A[7%v%C-A[7*90b7d'bRWi)*-7j#=-/Bj)7$;-/XM/_JQ
7]V280sIe98zX7\) SJ23MgS6K>26\TK Mej07X(>E%h$,q+H'/2\Yq+:00*P[
4t)9[(J>5W+*7v77%v%C-A[7%v%C-A[7*90b7d'bRWi)/-5=#=-/Bj)7$;-/XM/_JQ
7]%j$M$2:W[/$#<2q[%:$,T/q\>A$.kv<x.f5<#M-[1-)<#=-/Bj)7\O-'XMV_.p:00*7[
4tc[XzT%yp:W[280sS3[%23MgS6K>26\TK Mej07X(wE )$,q+H'/2\Yq+:00*P[
4tw9[(J6]+:=2')>#=0KDp[S#=0KDp[S#tuM0'w)-4:daSZjyWF)1-5h#!o)12\9q+y
e4Z68t2Y
.ends iob_lvds_lvlshf_data
