** End of subcircuit definition.
************************************
** Library name: rnr_spice_sanjay
** Cell name: iob_obc_lvlsh_p_c
** View name: schematic
************************************
.subckt iob_obc_lvlsh_p_c in loc_gnd loc_vcco loc_vdd out plvlsel_vccaux
+plvlsel_vcco plvlselb_vcco por_b_vcco
.prot FREELIB
%[XzT%[WFM>Ga#DW%)u:ZI:Q
%'X\V-wWFM>Ga#DW%)%hZ$:Q
%/X78-#=0KD!8Y#/-IH\L
svw+*7;.4\2:R.a.o\;:kAH5!U[Y
kU2 y0\Qw['$,t/QN[ $sQ4hu_0
'\\3:W[/$4\WFM>Ga#DWFM>Ga#DW+O.U$UqpH'H23_Jx($Xz'_3+:0P*==#!<) 0
'\*23[Xd\%##+-XzT%3U)9id[69/%MXI>MZ203u)$UqUHIJ23_JxcSXz'_]WR%a:$rZ((9[![M\(c6
eO6%3,:jP/m7\) 5D78%#=0KDp[STWFM>G<Sgv:]md/%TOmUX4yj+I)9i*P!-l:0P*P7$K-/Z
F>.SPM9_ xg##+-xZt%33>9ID[69/%mxi>mz203U)$uQuhij23_jXCsxZ'_vwr%A577$k-[z
F>.SPE9[(j1##+9[(j=;L:R.a.+G/09$oW9SV7uU2,_-Xp2xLYX+uE9[FYH#!O)\H$Rz(36
eO6%3h:=2'g7:;[4D78%#=0KDp[STWFM>G<Sgv:]md/%TOmUX4yj+I)9i*P!-l:0P*P7$K-/Z
F>.SP(9.mj7\) 5d78%#=0kdP[stwfm>g<sGV:]MD/%toMux4YB+iW9I*p!-L:=E*(7$;-/xm/_jw+N>D8_-q
7O$'7h# 9x j97\) 5XlwS/Y%K.23MgS6K>d$.kv<x.fsj#M-'B+97%((E%v$#4(#94 yx#!<)128Ogv+)%0
'\*2#9[(J1/#+xXI3+%K9rDp[STWFM>G<Sgv:r.A.+g/09$Ow9sv7Uu2,_3WF)1-5>#!o)12\9q+y
3Mij=Uw+*7HS>#[O-,23mGs6k>D$,t/Q\>aW7*90B7D'J;wI)%-0$#=-/bJ*7\o-:xmv_.P:00*7[
492xV2 Y0\qW['$.%YFb2lX69/%MX\V-wWFM>G<Sgv:]md/%TOmUX4y=+Ue9i*P!-l:0P*P7$K-/Z
F>.SL:Jp/M6C  9$L<,z)fc-a[m#=0kdP[stwfm>g<sGV:]MD/%toMux4Y=#=-/bJ*7$;-/xm/_jq
7O$'7<# 9x=26M'S[C-A[M#=0KDp[STWFM>G<Sgv:]md/%TOmUX4y=+U:ra:ZbyWR%a:$rZ((6
eO6%VW+*7;.4\2:]ip39<=[C-A[M# 9x=23MgS6K>d$.kv<x.fsj#M-'B+97%((E%v$#4(c94 y33WRbahL
)KT [%280SPM:xZt%[wfm>g<sGV:R.a.+G/09$oW9SV7uU2,_-Xp2xLYX+uE9[FYH#!O)\H$Rz(36
eO8%;WT%3]$.%YFb2l.+g/'0e2 Y0\qW['$,T/qn[ $#kv<x.fsj#M-[Bj*7%((E/2\Yq+:00*P[
49+xH2wrsW!=323MgSZ=P23MgSZ=P28\TK Me)s7X(>9i*P!VW+3ah57$;-! 2\9qp:=gAw#qUy
3MZj=jw+*7;$4\wfm>gA#dwfm>gA#dw+o.ujm43M9C*S!ji:RA:zH# 7)%:$Rd(*[xm/_3q
7O['57\) 5XI3+%K9rDp[S[!79[(J1/#+xXlwS/d+%Xz>MZ203u)$UqUHIJ23_Jx>9[fyb#!o)\h$rZ(36
eO8%3WT%3]$4\f:r.A.O\;:r.A.O\;:=md/%TOmUX4yj++>9i*P!VW+3ajP7$;-! 2\9qpy
3MZje#VrXxZt%[wfm>gA#dwfm>gA#dw+o.ujm43M9C*77%((e/2\yQ+:00*p[
492UX78-##+9id[69;o9id[69;o9$Ow9#M-'B+97%((E1t$#4(3/XMV_.p:00*7[
+!+]6dJ[
.ends iob_obc_lvlsh_p_c
