** End of subcircuit definition.
************************************
** Library name: rnr_spice_sanjay
** Cell name: iob_obc_drv_cz
** View name: schematic
************************************
.subckt iob_obc_drv_cz_schematic loc_gnd_drv loc_vcco_drv opn_a opn_a_del
+opn_b opn_b_del opn_c opn_c_del opn_d opn_d_del opn_e opn_e_del
+opn_es opn_es_del opn_x<8> opn_x<7> opn_x<6> opn_x<5> opn_x<4>
+opn_x<3> opn_x<2> opn_x<1> opn_x<0> opn_y opp_a opp_a_del opp_b
+opp_b_del opp_bs opp_bs_del opp_c opp_c_del opp_d opp_d_del opp_e
+opp_e_del opp_es opp_es_del opp_x<13> opp_x<12> opp_x<11>
+opp_x<10> opp_x<9> opp_x<8> opp_x<7> opp_x<6> opp_x<5> opp_x<4>
+opp_x<3> opp_x<2> opp_x<1> opp_x<0> opp_y pad
.prot FREELIB
7WP3<d\W25P23MgSZ=PGV89WFM>G<Sgvq%6p$M* q<Xd6./::W./.M0/q%6p.28
o!%6P'wYe:]= $,t/QN[ .y'y:m$Z.)MLv98Dx6tF%cp3<64 Y
38 :+41W+xiGy#=0kd!8y/;;\xD6#/o_$)2hm0s0->gv89s7=z
Fhy'y7Hjq$.[;:R.a.o\;Q%6P$m* Q3ry%7CV[c./[6d56cEZl
)C;;\Ec0P#T'%xLWs/D+%d :+#V2=dF#<1w!m3gW-GsOy-g'#8
o!%6P'wve:]= $,t/QN[ .y'y:m$Z.)Miv98Dx6tF%cp3<64 Y
38 :+41M+xiGy#=0kd!8y/;;\xD6#/o_u)2hm0s0->gv89s7=z
Fhy'y7H%q$.[;:R.a.o\;Q%6P$m* Q3rJ%7CV[c./[6d56cEZl
)C;;\Ec7P#T'%xLWs/D+%d :+#V2=dF#=1w!m3gW-GsOy-g'#8
o!%6P'wje:]= $,t/QN[ .y'y:m$Z.)M+v98Dx6tF%cp3<64 Y
38 :+*[3Hfq$.[;:R.a.+G/0cp3<7tT2cEc7X1w!m3gW-GsOy-g'.3q
7WP3<.:p_S)261DWFM>G<Sgvq%6p$M*tq3RE%7cv[C./[6D56CeI7[
4#oY-I =mjV9$;V7%v%C-A[M/;;\Xd6./O_S)2HM0S0->GV89S7] 0
'4D56]_h#$1W25P23MgS6K>d.Y'Y:M$I.)mjV98dX6Tf%CP3<64t36
e7V89tT[R+%7*$o9id[69/%MD :+#v2]Df#$1W!M3Gw-gSoY-G'.3Q
7WP3<.:p_:)261DWFM>G<Sgvq%6p$M*tq3R+%7cv[C./[6D56CeI7[
4#oY-I =m3V9$;V7%v%C-A[M/;;\Xd6./O_:)2HM0S0->GV89S7] 0
'4D56]_h#b1W25P23MgS6K>d.Y'Y:M$I.)mUV98dX6Tf%CP3<64t36
e7V89tT[Rh%7*$o9id[69/%MD :+#v2]Df#=1W!M3Gw-gSoY-G'.3Q
7WP3<.:p_/)261DWFM>G<Sgvq%6p$M*tq3R:%7cv[C./[6D56CeI7[
4#oY-I W;E:]= $,T/q\>Aw6D569.I66413U)2HM0S0->GV89S7]Z
Fhy'y2JrJ%7*$O9ID[69/%md :+#V2]dF#=-e:w./.m0/Q%6P.)*q
7WP3<.:13+XIgY#=0KDp[STSoY-2w.*S7h h%7cv[C./[6D56CeIL
)C;;\$\#X1w25p23mGs6k>D.y'y:m$i.)M3v98Dx6tF%cp3<64TY
38 :+xw25p23mGs6k>D.y'y:m$i.0zsO*I2W.*s9Bx7W-/V[kd :+/mY
38 :+*+:]= $,t/QN[ .y'y:R.a.+G/0cp3<7tT+c2u$m* Q*0gv0%w0]$gx98
_0]$gx9/;9Rx7W-/V[kd :+/kY
38 :+<+:]= $,t/QN[ .y'y:R.a.+G/0cp3<7tT+c22W.\s9cp(37tT2c22W.*s9cp(3[
a#0-DdXS/;;\D(L
)C;;\p:$.[;:R.a.o\;Q%6P$,t/Q\>aW6d569.i86dw0][gv6d)f9.i66dw0]$gv6d)f6
:7w-/v[KD :+/;y
38 :+G+:]= $,t/QN[ .y'y:R.a.+G/0cp3<7tT+c>2W.\s%cp(37tT2c>2W.*s%cp(3[
a#0-DdXS/;;\DAL
)C;;\3:$m* Q-xD6#/FQ%2L$m*TQ-xD6./FQ%2L$.[;:R.a.o\;Q%6P$,t/Q\>aW6d566
:7w-/v[KD :+/fy
38 :+[+:m$Z.1#V2=d;.y<=:m$i.1#V2]d;.y<=:]= $,t/QN[ .y'y:R.a.+G/0cp3<[
a#0-DdXS/;;\D;L
!$ 2y.'l
.ends iob_obc_drv_cz_schematic
