** End of subcircuit definition.
************************************
** Library name: rnr_spice_sanjay
** Cell name: iob_obc_lvlsh_p_e
** View name: schematic
************************************
.subckt iob_obc_lvlsh_p_e in loc_gnd loc_vcco loc_vdd out plvlsel_vccaux
+plvlsel_vcco plvlselb_vcco por_b_vcco
.prot FREELIB
%/X78-#=0KD!8Y#/-IJ-7d8
/C9_ xg#=0kd!8y#/-[f-*D8
/39[(j1#=0kd!8y#/-'h\l
svw!=323mGsz=p2[_3uhu_0
[j#[o-,GH#sWFM>Ga#DW%)V-sd8
oU=U2h#0w!=xLWs/D+%xLWs/D+%xZ>mzwI) -7<#=-/b:(7\o-[12\yQ6394uY=8
oU]7H77t! 98Zx7\) [%y$,t/Q\>aW7*90B7D'J;wI)/-77%((e%V$#4(p94 YX#!<)128oGV+)%0
'\*23(X\V-wW+*7;.4\2:r.A.+g/09id[69/%MXI>MZ203u)$Uq3H[Xlyx+Ue94 yx#!<)10
'\*23UX\V-wW!=3280spm:XlwS/Y%K.26\TK Me)s7X(cEu23_JxcSXz'_VWR%a577$K-[Z
F>.SPE9[(j1##+9[(j=;L:R.a.+G/09$oW9SV7uU2,_-XM9I*p!-L:=E*)7$;-! 2\9QPY
3Mij=5w+*7;$DdF.c8Zj7%V%c-a[m#=0kdP[stw2o.ujm43M9C*S!3wf)1-5>#!O)12\9Q+Y
3Mij=jw007280S$Qw['$,t/Q\>aW7%V%c-a[m#TUm0'W);3:DAJzB-wf)1-5># 7)*2\yQ+:00*p7\D%m[*5[
492x S$#<23'J280s$:r.A.+g/09id[69/%MXI>MZ203u)$UqIH[Xlyx+Ue9[fy<#!o)12\9q+:=gAw#qUy
3Mije# 9X=gh#Sw2R-L/0%s6k>D$,t/Q\>aW7%V%c-a[m#TUm0'W);3:DAH$,Q+h'h2\yQ+:00*p[
492x t$#<23UH2 Y0\:r.A.+g/09id[69/%MXI>MZ203u)$UqUHUXlyx+Ue9[fyh#!o)\h$rZ(36
eO6%RWT%3].4\2:]ip39<=[C-A[M#[o-,23MgS6K>d$.kv<x.fsj#M-[Bh07%((E%v$rD((94Uyx8
oU]7V$DdF.c8Zj7*=6R0(369/%mxLWs/y%k.23mGs6k>D$.KV<X.FSJ#m-[xLYX+uE94 YX#!<)10
'\*23IXzT%[W2M6GX69/%MXlwS/Y%K.23MgS6K>d$.kv<x.fsj#M-[Bj$,q+H'H2\Yq+:00*P[
492x/280s$qW['$.%YFb2lX69/%MXzT%[WFM>G<Sgv:]md/%TOmUX4yb+3:ra:ZbyW+3aj$rD(*[XM/_3Q
7O$'7b# 9x ))7\) 5XlwS/Y%K.23MgS6K>d$.kv<x.fsj#M-'B)$,q+H'H28)qI:0P*==#!<) 0
'\\2m9_ XG#tF\iUT,/Y%K=M'7:;[4D78%#=0KD!8Y# uM0'w);3:dahZ=RWF)1-)7$;-/XM/_JQ
7O['*7T! 98zX7%v%CgzV7%v%CgzV7\90b7d'j;Wi)/-s7%((E/28)qp(94 y33WRbah$#2/0=ajL
)K  [1280S$:w[23mGsz=p23mGsz=p28\tk mE)S7x(Ce*s$,Q+h:xZ'_-+:0p*==#!<) 0
'\\2c9[(J1#tF\iUT,/Y%K=M'7\) 5D78%#=0KD!8Y# uM0'w);3:dajZj#=-/BS$#4(c94 y33WRbahL
)K  [x\v-Ww!=323mGsz=p23mGsz=p28\tk mE)S7x(Ce*s$,Q+h:xZ'_-+:0p*==#!<) 0
'\\2#9.MJ7\) 5XlwS/d+%XlwS/d+%Xz>MZ203u)$Uqp:ra:Zh#!o)12\9q+y
3MiS7C [98Z$,t/Q\p $,t/Q\p $.KV<9C*5!;wf)1-pi# 7) :$Rd(*[xm/_3q
H0[I:MsQ
.ends iob_obc_lvlsh_p_e
