** End of subcircuit definition.
************************************
** Library name: rnr_iob
** Cell name: iob_lvds_nmux33
** View name: schematic
************************************
.subckt iob_lvds_nmux33 enable enable_b nbias nbias_gen vcco
.prot FREELIB
7=mM'S[t(9-U/7\f!50Ga0\W6b02<9ZW+O.UJM43m9c*5!3h:raSZbRW+3ajP7$;-! 2\9qpy
3[g6y/ [w=u.o< :=37G9/D9=x(810=9c32<9zw6B028\tk mE)S7x(39I*p!vwr%A:$Rz((6
ez.%2S+-8;/62)+9[/H1ZSZ*[2T#[fF*XzX4[K:\0U$#kv<x.fsj#M-IB:$,q+H:XMV_JWRba:L
)*s NdZx4[kQN2Z$#0#'Bd!t##)+53Lt60w+-8;/79/%mxi>mz203U)$uQ4h/xLYX+uE94 YX#!<)10
Zr\t;M70
.ends iob_lvds_nmux33
