** End of subcircuit definition.
************************************
** Library name: rnr_spice_sanjay
** Cell name: iob_obc_ctrl_pc_x
** View name: schematic
************************************
.subckt iob_obc_ctrl_pc_x ff_b loc_gnd loc_vdd op_outb term term_b ts_b
.prot FREELIB
%/XzT%;p:\0U$Sq3HU_0
[=#v2C.MJ-#Y<bXAyb-x3jZ
FhB5H:J_gx7S);od/$#<2M[xFh6\$+%%2,#Q+hsv:$,\((e1Tp7\[!=G(:9QuY
8CiY=+i(/xL6_jX($126DC z*6uYB8
oU]12W./VrX3280S339ID[69;O9ID[69;O9$oW9#m-'b)97%((e1T$#4(C94 Y33wrBAHl
)*PM9[(j<;w *6o.-#=0kdPvy#=0kdPvy#TUm02,_jXC'xLYX++W94 YX#!<)10
'\*p:M$Gwrsf:=2'0j#=0KDpVY#=0KDpVY#tuM02,_-xm2Xlyx++w9[fyb#!o)\h$rZ(36
eO8=# 9x/+$#<2m[XlwS/d+%XlwS/d+%Xz>MZWi)%-77%((E1t$#4(c94 y33WRbahL
)K (9.i.m$2[9[(j<;w+*7s07%V%cGZv7\90Bx4YB+P:RA:zXUw+3AJ$Rd(*[xm/_3q
7W%Y(7sKq-X'T8kS[97(:\# 9xV)$)cS n='T7X -/B+Px#=+)1-PIJW+j8za0'K-'Z
$,.Q+hi1:$,*((e1Tp7*[!=G(:9QuY
e4Z68t2Y
.ends iob_obc_ctrl_pc_x
