** End of subcircuit definition.
************************************
** Library name: rnr_spice_sanjay
** Cell name: iob_obc_lvlsh_p_a
** View name: schematic
************************************
.subckt iob_obc_lvlsh_p_a in loc_gnd loc_vcco loc_vdd out plvlsel_vccaux
+plvlsel_vcco plvlselb_vcco por_b_vcco
.prot FREELIB
%'X\V-wWFM>Ga#DW%)uh [
gp:=2'g7%v%CgzV7g(>UBj [
g3:jP/m6c  9id[62 o9>*)!][y
k/280S$Qw['$,t/QN[ $sQP)eU\l
sjw!=323mGsz=p2[_]+hu_0
'\\3:W[/$4\WFM>Ga#DWFM>Ga#DW+O.U$UqU:ra:ZxuW+3ahP7$;-! 2\9qpy
3Mij=3w0072h#0w+*7H5>#=0kdP[stw2o.ujm43M9C*)7%((e%V$#4(#94 YX#!<)128oGV+)%0
'\*23UX\V-wW!=3280spm'XlwS/Y%K.26\TK Me)s7X(>9i*P!-l:=e*)7$;-! 2\9qpy
3Mij=Yw+*7;$4\w+*7HS$#=0kdP[stw2o.ujm43M9C*)7%((e%V$#4(>94 Y33wrBAHl
)KT [j280S$:Jp/M6C  9ID[69/%mxLWs/y%k.26\tk mE)S7x(3eh23_jXCsxZ'_;wr%A:$Rz((6
eO6%3+:M4'$#<2'C8zJ7%v%C-A[M#=0KDp[STW2O.UJM43m9c*s7%((E%v$#4(#94 yx#!<)128Ogv+)%0
'\*23(X\V-wW+*7;.4\2:r.A.+g/09id[69/%MXI>MZ203u)$UqpHSXlyx+Ue9[fyj#!o)12\9q+y
3Mij=vw+*7H5># 9X=23mGs6k>D$,t/Q\>aW7*90B7D'J;wI)/23_jXCsxZ'_]wr%A:$Rz((9[![m\(C6
eO6%]W+*7;.4\2:]ip39<=q\>Aw7%v%C-A[M#=0KDp[STW2O.UJM43m9c*77%((E%v$rD((94Uyx8
oU]7H(7\) [Uy$DdF.9ID[69/%mxLWs/y%k.26\tk mE)S7x(>9I*p!-L:=E*)7$;-! 2\9QPY
3Mij<#[O-,gh#Sw2R-L/0%FQ\>aW7:;[4xLWs/y%k.26\tk mE)S7x(C9I*p!-L:0p*p7$k-/z
F>.SL:Jp/M6C  9$L<,z)fc-a[m#=0kdP[stwfm>g<sGV:]MD/%toMux4Y=#=-/bJ*7$;-/xm/_jq
7O$'7<# 9x=26M'S[C-A[M#=0KDp[STWFM>G<Sgv:]md/%TOmUX4y=+U:ra:ZbyWR%a:$rZ((6
eO6%VW+*7;.4\2:]ip39<=[C-A[M# 9x=23MgS6K>d$.kv<x.fsj#M-'Xlyx+Ue9[fyh#!o)\h$rZ(36
eO6%3U:=2'7j-W+*7;$,T/q\>Aw7%v%C-A[M#tuM0'w);3:daS$,q+H'H28)qI:0P*==#!<) 0
'\\2m9_ XG#tF\iUT,/Y%K=M'7:;[4D78%#=0KD!8Y# uM0'w);3:daj$,q+H:XMV_JWRba:L
)K  sxD\%##+-xLWs/D+%xLWs/D+%xZ>mz203U)$uQ4:RA:zH# 7) +$Rd((94uYX# zk.ZYB8
oU=7Hp7\) 5x787%V%cGZv7%V%cGZv7\90B7D'J;wI)v23_jX>9[FY=]wr%A:$Rz((6
eO8%-W+*7;$.%YFb2l.+g/'0e280s$qW['$,T/qn[ $#kv<x.fsj#M-'Xlyx+I:=e*)7$;-! 2\9qpy
3MZj=#[O-,2h#0wfm>gA#dwfm>gA#dw+o.ujm43M9C*07%((e/28)QP#94 YX#!<)10
'\\2#9.MJ7\) 5XlwS/d+%XlwS/d+%Xz>MZ203u)$Uqp:ra:Zh#!o)12\9q+y
3MiS7C [98Z$,t/Q\p $,t/Q\p $.KV<9C*57%((e1T$#4(C/xmv_.P:00*7[
+!+]6dJ[
.ends iob_obc_lvlsh_p_a
