** End of subcircuit definition.
************************************
** Library name: rnr_iob
** Cell name: iob_lvds_drvr5
** View name: schematic
************************************
.subckt iob_lvds_drvr5 a_bn1 a_bn1_b a_bn2 a_bn3 b_an1 b_an2 b_an3
+nbias_gen nbias_ldt1 nbias_ldt2 ncom out pbias_gen pbias_ldt1
+pbias_ldt2 pcom vcco
.prot FREELIB
7]$M77T! 9=GX#3S[9$Aw\#Y%K.26\TK Mej07X(PEFE$,q+HUV28)qI:0P*77$K-[XfV_Jxm:V2'9q+HIH+$)2/o)1-shRW7n>Uyx+3cIZ
F6.$V2X 26st9:]>D>7*/0oxP[stw2o.ujm4up9C*0!],:RA:zJrw+3Ay$Rd(394uY=#oO)1-SHrw7BA:z<Y4:3Gav_jXM:v2'oGk-/b)5<8
o+]p)$m$2:5d/8J# %mM2<9zw+o.ujm4up9C*9!UH:RA:zJ# 7)/2\yQP:00*774;-/b))<#o<)1-0>rw7N> YX+3>ixFAsz((eUJ0[
4 2%%2wrsW'C3z57\/0OXp/9# uM0'w)-4:daYZI5WF)1-s7\O-:XMV_3WRbah$)D((EuS074K-/B+*<#OZKP*P!;IP9e![9q+HU%+L
)\TOm$'779k<9-u/7\/0oxP/9# Um0'W)-4:DAyzi5wf)1-S7\o-:xmv_3wrBAH$)d((eUs074k-/b+*<#ozkp*p!;ip9E![9Q+hu%+l
)\TruxD\%#FQ5[)$.GVU9-u/7\90B7D'BrwI)j-(7%((eU28)QH:0p*77$k-[xFv_jXM:v2'9Q+hih+$)2/O)1-SHrw7N>uYX+3Ciz
F8.$V2X 2<9zw6B026st9:\0u$#KV<X.F5<#m-2bT$,Q+huxZ'_vwr%AH$Rz(39E YX+3>ixF/_jXpsv2'oG;-/b))<#ozk0*p!;up6
ez6Y3W0072g60 39[Aw\#Y<bXz>MZ203%+$UqhH$J23_Jxm9[fy$#!o) 2\9qp:3P*P!;IP9eUyx+4eIXfaSD((EuS074d%ba:Zj-4y
3[i\B#VrXx/.1\u:]>D>79k<9[oW9SV7'v2,_5XW9I*p!;w+3Ay$Rd(394uY=#oO)1-SHrw7BA:z<Y4:3Gav_jXM:v2'oGk-/b)5<8
o+]4H$m$2:-d;8=#T%mM2<9zw+o.ujm4up9C*9!Uwf)1-S7\o-[12\yQP:00*774;-/b))<#o<)1-0>rw7N> YX+3>ixFAsz((eUJ0[
4t<Y>j$.gvu9$/H1ZSF%7j$+g/09-A[M#tuM0'w)-4:dahP!yWF)1-)7\O-:XMV_.p:00*7[
4t<Y>)$.gvu9$/H1ZSF%7h$+g/09-A[M#tuM0'w)-4:dahP!yWF)1-)7\O-[%2\Yq6394Uy=8
o2k.o[1*+:\>aW7*/0oxP[stw6k>D$.KV<X.F5<#m-'b)07%(3/xZ'_;wr%A:$Rz((6
eI/8gp:]>d>7*f!50Ga0\W6K>d$+g/09$Ow9sv7'V2,_3+HSXlyx+I:=e*)7$;-! 2\9qpy
3[aW\G$2/xP/9# %mM2<9zw6B028\tk mEJ07x(3efs07%(Eefs$#4(>94 Y33wrBAHl
)\k+4 28st9:=37G9/D9=xP/9#y<BxZ>mz203%+$uQihs/23_jX>'xZ'_-,:0p*p7$k-/z
F89\\M9[aW\# [w=u.,d2C9-u/79k<9[oW9SV7'v2,_vXE:xLYX+iC9[FYB-wr%A577$k-[z
F89\\C9[aW\# [w=u.,d239-u/79k<9[oW9SV7'v2,_vXE:xLYX+iC9[FY=;wr%A:$Rz((6
BM8.'v 6
.ends iob_lvds_drvr5
