** End of subcircuit definition.
************************************
** Library name: rnr_iob
** Cell name: iob_obc_drv_xn
** View name: schematic
************************************
.subckt iob_obc_drv_xn io loc_gnd opn
.prot FREELIB
7=12HM#v2=XlwS/d+%XlwS/d+%Xz>MZ203u)$UqjH'*23_Jx>94 y=#!<)12'Yq+HU/+$)Z((E*h$)2/o)1-shRW7n>Uyx+U>IXzaST -'Z
-\#*50Xz
.ends iob_obc_drv_xn
