** End of subcircuit definition.
************************************
** Library name: rnr_spice_sanjay
** Cell name: iob_obc_del_n_c
** View name: schematic
************************************
.subckt iob_obc_del_n_c in loc_gnd loc_vccaux out
.prot FREELIB
7O$h$nBW!=XlwS/Y%K=M'7%v%C-A[1$O:]md/%TOcIX4y=++c9i*P!;j:0P*P7$K-/Z
F>.jw0072+N#=0kdP[s[!79ID[69/%54F$.KV<X.F5<#m-'xLYX+u>9[FYB#!O)\H$Rz(36
eO8x#>J98z$,T/qn[ $,T/qn[ $#kv<x.f5<#M-[Xlyx+U>94 yx#!<)10
'\\p:M4'$nBWFM>Ga#DWFM>Ga#DW+O.UJM4UP9c*7!J3:ra:Zj#!o)12\9q+y
e4Z68t2Y
.ends iob_obc_del_n_c
