** End of subcircuit definition.
************************************
** Library name: rnr_ioi
** Cell name: ioi_optinv
** View name: schematic
************************************
.subckt ioi_optinv in_n in_p out_n out_p sel_n sel_p
.prot FREELIB
H]=3g\#M2CmM'_D[i]X486k!7)P\,##M+C8z<xq;Td[2,./#+\1*VdXt:d[GH#9p-%_48[
aM2C8z<=q;Td$0
'4upm98z..##+C[280sU(90(36\W<*iG67cv!C%'w=/9R3X46_XtqO4f$U\(i=DO\)8
o!oEa3g3w!=di$4\s+9[(jBrw<*Ig67z)fc[2hmCsCX.H.\$o:D$*,./9r3x48_x Qo4Fl
)C#+\1280Sup9.mj6*w7wd78+#m+)CZ.4\y(9IZYX++W/xZ 4\D9y0*77xT-D$gh#9+Y
8IiYX++W/xi 4\D9y0*7[
4#!=-h$#<2c/Xd\%/ :38GH#9Wi=a486c 6[Xl8_Jx($128dc Z*6Uy=#M2)cI.4\Y36
:l6_Jx($126dc Z*6Uy=8
Xr=$3W%8
.ends ioi_optinv
