** End of subcircuit definition.
************************************
** Library name: rnr_ioi
** Cell name: ioi_inmux_new
** View name: schematic
************************************
.subckt ioi_inmux_new disable i0 i1 i2 i3 out s0 s0_b s1 s1_b s2 s2_b s3
+s3_b
.prot FREELIB
7O$:$M$2:b1GX7c+:\P $.kv<9c*5!R3:ra:ZxuWR%a:$rZ((6
eO6j#vRxXU560W!'XpVY#tuM02,_-xPUXlyx++w94 yx#!<)10
'\*U:M4'$93S[98h$+D;:]md/7X(cEV)$,q+H/*2\Yq+:00*P[
492:Xd\%#KmC32Hj#Yo%XI>MZWi)%-0j#=-/B:(7$;-/XM/_JQ
7O[S$M$2:%8Ug-%):\0U$+ZK:=md/7X((E%23_Jx($XMV_JWRba:L
)K (9.mj7z+:w12<9zw+o.u$uQPh'j23_jX($xmv_jwrBA:l
)K C9.mj7zu:w%2<9zw+o.u$uQPh'j23_jX($xmv_jwrBA:l
)K 39.mj7zP:w 2<9zw+o.u$uQPh'j23_jX($xmv_jwrBA:l
)K M9.mj7z3:wU2<9zw+o.u$uQPh'j23_jX($xmv_jwrBA:l
!$ 2y.'l
.ends ioi_inmux_new
