** End of subcircuit definition.
************************************
** Library name: rnr_ioi
** Cell name: ioi_5to1_mux
** View name: schematic
************************************
.subckt ioi_5to1_mux i0 i1 i2 i3 i4 out s0 s0_b s1 s1_b s2 s2_b s3 s3_b s4
+s4_b
.prot FREELIB
7O$h$M$2:b/GX7cI:\P $.kv<9c*5!R3:ra:ZxuWR%a:$rZ((6
eO6x#vRxXUP60W!/XpVY#tuM02,_-xPUXlyx++w94 yx#!<)10
'\*3:M4'$9-S[98j$+D;:]md/7X(cEV)$,q+H/*2\Yq+:00*P[
492'Xd\%#K3C32H=#Yo%XI>MZWi)%-0j#=-/B:(7$;-/XM/_JQ
7O$S$M$2:buGX7c3:\P $.kv<9c*5!R3:ra:ZxuWR%a:$rZ((6
eO8<#vRxXU)7cI:\0U$#kv<9c*7!-h:ra:ZxuWR%a:$rZ((6
eO8x#vRxXUP7c+:\0U$#kv<9c*7!-h:ra:ZxuWR%a:$rZ((6
eO8b#vRxXU57cU:\0U$#kv<9c*7!-h:ra:ZxuWR%a:$rZ((6
eO8=#vRxXU77cp:\0U$#kv<9c*7!-h:ra:ZxuWR%a:$rZ((6
eO8j#vRxXUs7c3:\0U$#kv<9c*7!-h:ra:ZxuWR%a:$rZ((6
BM8.'v 6
.ends ioi_5to1_mux
