** End of subcircuit definition.
************************************
** Library name: rnr_spice_sanjay
** Cell name: out_load_vref
** View name: schematic
************************************
.subckt out_load_vref pad pad_int vccaux vcco
.prot FREELIB
7O['7x#Y<bXIgY/#+xXp/9#Y<bXz>MZ203%+$UqpH/V23_Jxc2Xz'_yWR%a:$rZ(36
eO8%3p:\0U$.[;qW['$+ZK:\0U$#kv<x.f5<#M-[B:07%((E%Y$\4(c9[fy>#!o)12\9qpy
3MZj=-w6B0261ds!=72<9zw6B028\tk mEJ07x(3e1H$,QPh'xZ'_-wr%A577$k-[z
F>#SPM9-u/7*$Oc8Zj79k<9-u/7\90B7D'BrwI) -p<#=-/bJ97\o-sxmv_jwrBAHl
)KT ixiGy/#+XxP[stw6k>D$+G/09$oW9SV7uU2,_3uhi/23_jXCsxo'_-wr%A:$Rz((6
ez)7*$o9-A[1$O:=2'sx5W6b028\TK Me)s7X(wE%t$,q+H:Xz'_3h:0P*P7$K-[Z
F>#S+:\0u$+zk:\0u$+zk:=MD/%toMux4Yi+uW9I*p!vwr%A:$Rz((6
eO8%]W25PGH#sW6b02<9ZW6b028\TK Me)s7X(wE%t$,q+H:XO'_-WR%a:$rZ((6
e7\./;+C,(T.JW6b02<9ZW6%P2<YDW6%P2<9ZW6b02<Sgv:=2')b-W6b02<9ZW6b02<Sgv:\P $+ZKy
88Dx6$TQ%[gM0<TY
3MZjX[w+*7s5B#y<BxP/9#y<BxZ>mz203%+$uQJh2f+$,Q+h:xZ'_-wr%AH$Rz(39E YX+3>ixF/_jXpsv2'oG;-/b))<#ozk0*p!;up6
eO8%J$qjXzT%VUc9-U/79K<9-U/7\90b7d'bRWi)u-*j#=-/BS$#4(c94 y=#!<) 2'Yq+HU/+$)Z((EVv074d%%a:ZjV4:3gA/_Jxm'V0
'\\2c5XzT%VUc9-U/79K<9-U/7\90b7d'bRWi)*-9ERWF)1-)7\O-SXMV_3WRbah$)D((EuS074K-/B+*<#OZKP*P!;IP9e![9q+HU%+L
)K  [=280SiC'xP/9#y<BxP/9# Um0'W)-4:DATz$]4:RA:zH# 7)/2\yQP:00*774;-/b))<#o<)1-0>rw7N> YX+3>ixFAsz((eUJ0[
49+x 280sIc'Xp/9#Y<bXp/9# uM0'w)-4:daYZI5WF)1-s7\O-:XMV_3WRbah$)D((EuS074K-/B+*<#OZKP*P!;IP9e![9q+HU%+L
)K  'xZt%vuC9-u/79k<9-u/7\90B7D'BrwI)j-($#=-/b)$#4(>94 Y=#!<) 2'yQ+hu/+$)z((evV074D%%A:zJv4:3Ga/_jXM'v0
'\\2m9[(Jh-U:\0U$+ZK:\0U$#kv<x.f5<#M-2Bt$,q+HUXz'_5WR%ah$rZ(39e yx+3>IXf/_JxPSV2'Og;-/B))<#OZK0*P!;UP6
eO8%VW+*7S5b#Y<bXp/9#Y<bXz>MZ203%+$UqhH$Xlyx+3:=e*7>#!o) 2\9qp:3P*P!;IP9eUyx+4eIXfaSD((EuS074d%ba:Zj-4y
3MZj<# 9X/J579k<9-u/79k<9[oW9SV7'v2,_5XW2xLYX+3:=E*97$;-[xm/_3w7%A:zJv4:30*p!rLp9E![yQ+hu/+$)2/<)1-SBrq
7O['97\) :%j$+ZK:\0U$+ZK:=md/%TOcIX4y$+j:ra:Zj# 7)J2\Yqp:00*774;-/B))<#O<)1-0>RW7n> yx+3>IXfaSZ((Euj0[
49+x*280sIc'Xp/9#Y<bXp/9# uM0'w)-4:daYZI#=-/B)$#4(3/XMV_3WRbah$)D((EuS074K-/B+*<#OZKP*P!;IP9e![9q+HU%+L
)K  sxZt%vuC9-u/79k<9-u/7\90B7D'BrwI)j-($#=-/b)$#4(3/xmv_3wrBAH$)d((eUs074k-/b+*<#ozkp*p!;ip9E![9Q+hu%+l
)KT /=280SiC'xP[stw6k>D$+G/09$oW9SV7'v2,_]X>iv23_jXCsxZ'_-wr%AH$Rz(39E YX+3>ixF/_jXpsv2'oG;-/b))<#ozk0*p!;up6
eO6%-$:=2')b-W6K>d$+g/09-A[M#tuM0'w)-4:daEZhR4:ra:ZbyW+3av$rD(394Uy=#Oo)1-shRW7ba:Z<y4:3gAV_Jxm:V2'OgK-/B)5<8
oU]7HG7\) :%J$+G/09-a[m#y%k.26\tk mEJ07x(#e/+07%((e%V$#4(>94 Y=#!<) 2'yQ+hu/+$)z((evV074D%%A:zJv4:3Ga/_jXM'v0
'\*2(5D\$#<2>'%2<Sgv:\>Aw79/%MXI>MZ203%+$UqIH/H23_JxcSXz'_-WR%ah$rZ(39e yx+3>IXf/_JxPSV2'Og;-/B))<#OZK0*P!;UP6
eO6%JW+*7S5b#Y%K.2<Sgv:\>Aw7*90b7d'bRWi)V-;E#=-/B)07\O-:XMV_3WRbah$)D((EuS074K-/B+*<#OZKP*P!;IP9e![9q+HU%+L
)C+:\0u$+zk:\0u$+zk:\0u$+zk:\0u$+zk:\0u$+zk:\0u$+zk:\0u$+zk:\0u$+zk:\0u$+zk:\0u$+zk:\0u$+zk:\0u$+G/09-a[m#y%k.2<sGVY
8-a[m#y%k.2<sGV:\>aW79/%mxP[stw6k>D$+G/09-a[m#y%k.2<sGV:\>aW79/%mz
$<sGV:\>aW79/%mxP[stw6k>D$+G/09-a[m#y%k.2<sGV:\>aW79/%mxP[stw+*7s5B8
_6k>D$4tFQm3a.y'yQkK0
:x# 9x/j57*$o96*9jJ9y
yU261ds!=7280S3(2x3Y=j+h/1:l
8-w+*7)p$# 9XU:97'(3/1-pXjq
%/XzT%VUc9-U/7g(mEJIL
!$ 2y.'l
.ends out_load_vref
