** End of subcircuit definition.
************************************
** Library name: rnr_spice_sanjay
** Cell name: rcload_loutn_a
** View name: schematic
************************************
.subckt rcload_loutn_a in out
.prot FREELIB
%/X7879K<9>*7j:Q
%[Xd\%#Y<bXAy=;[y
y12h##VrXx3YJjq
H0[I:MsQ
.ends rcload_loutn_a
