** End of subcircuit definition.
************************************
** Library name: rnr_spice_sanjay
** Cell name: rcload_predn_y
** View name: schematic
************************************
.subckt rcload_predn_y in out
.prot FREELIB
%/X7879K<9>*0h:Q
%[Xd\%#Y<bXAy<V[y
y12h##VrXx3YBU+Y
e4Z68t2Y
.ends rcload_predn_y
