** End of subcircuit definition.
************************************
** Library name: rnr_spice_sanjay
** Cell name: rcload_loutn_b
** View name: schematic
************************************
.subckt rcload_loutn_b in out
.prot FREELIB
%/X7879K<9>*7x:Q
%[Xd\%#Y<bXAy=J[y
y12h##VrXx3YJ5q
H0[I:MsQ
.ends rcload_loutn_b
