** End of subcircuit definition.
************************************
** Library name: rnr_spice_sanjay
** Cell name: rcload_normn_c
** View name: schematic
************************************
.subckt rcload_normn_c in out
.prot FREELIB
%/X7879K<9>**!R[y
k 2WRSw6B02[_YXpJz
3p7C :m4'$8QP#6
BM8.'v 6
.ends rcload_normn_c
