.GLOBAL vss vdd vcco vccaux
.PARAM dfln=0.07 dflp=0.07 dflnn=0.07 dflpn=0.07
.PARAM dflnmlvt=0.1 dfln12=0.12 dflp12=0.12
.PARAM dfln15=0.12 dflp15=0.12 dflnt=0.24 dflpt=0.24
.PARAM dflntt=0.27 dflptt=0.27
.PARAM dfwn=0.2 dfwp=0.2 dfwnlvt=0.15 dfwplvt=0.15
.PARAM dfwnmlvt=0.16 dfwnmox=0.16 dfwpmox=0.16
.PARAM dfwnt=0.36 dfwpt=0.36
************************************
** Library name: rnr_spice_sanjay
** Cell name: rcload
** View name: schematic
************************************
.subckt rcload in out
.prot FREELIB
H]=3g\#/FM= y=:W;r.;V_3Q
%[Xd\%#Y<bXAyS%v'%Z
ap7C :\0u$sQ/fm= l
8jw!=xD\%#5-yIDGy8
Xr=$3W%8
.ends rcload
