** End of subcircuit definition.
************************************
** Library name: XI_MacrosLib
** Cell name: xi_inv
** View name: schematic
************************************
.subckt xi_inv A Y
.prot FREELIB
H]=3g\#M+)123#q+:=_78O<5<) 2,.q+:r$*P7*[!=g(:9qpy
3[H$2#$:\0u$+zk:=MD/7x(I=xLY,\w+3AZ 4\D9y02\yQ6394uY=8
o2[x#$1#yO%xPvy#TUm02,_xT:RAL67\o-]_78o<5<94 Y33wrBAHl
!$ 2y.'l
.ends xi_inv
