** End of subcircuit definition.
************************************
** Library name: XI_MacrosLib
** Cell name: xi_tnor2
** View name: schematic
************************************
.subckt xi_tnor2 A B Y psup
.prot FREELIB
H]=3g\#M+[a:$,\p-/X48=/[!=g(:9qp:d[jyx#=+'a:$U\Uqj8za0'K-[X46=q+:r$hyx8
_I] g 4\D9y0*77xTC)123.-((9Ci56:#+N23/_3q
7= 2e7[W6b02<9ZW+O.UJM4UP9c*,#3WF)iz77\O-d[h.dc Z*6U$rD(394Uyx8
o+'x#$-#y<BxP/9# Um0'W)-4:DA48B#=-R[J$#4(I=%g 4\D9y02\yQP:00*p[
4t39o2g7\) UJ269$t:]md/%TOcIX4yU*p:ral6=# 7)cI76:#+n23/7$;-/XM/_3Q
7]%280s3)93269$t:]0M67*90b7d'bRWi)cI57%(F]%28)qM2'D\H#2);bXMV_3WRba:L
!$ 2y.'l
.ends xi_tnor2
