** End of subcircuit definition.
************************************
** Library name: XI_MacrosLib
** Cell name: xi_tinv_33xxx
** View name: schematic
************************************
.subckt xi_tinv_33xxx A Y psup nsup
.prot FREELIB
H]=3g\#M+)123#q+:=_78O<5<) 2,.q+:r$*P7*[!=g(:9qpy
3[2E7[w+B4i$#z!29[oW9SV7uU2,_x :RAL87\o-=_78o<5<94 YX#!<)10
'.#::5XI/r*W2b4I$.kv<x.fsj#M-d$23_%t:=e*6dc Z*6U$rD((94Uyx8
Xr=$3W%8
.ends xi_tinv_33xxx
